<?xml version="1.0" encoding="UTF-8"?>

<!-- generated on 11/28/22 10:29:20 by Eclipse SUMO netedit Version 1.8.0
<configuration xmlns:xsi="http://www.w3.org/2001/XMLSchema-instance" xsi:noNamespaceSchemaLocation="http://sumo.dlr.de/xsd/netconvertConfiguration.xsd">

    <input>
        <sumo-net-file value="D:\hhc\venet_caching\sumo-1.8.0\experiments\small\small.net.xml"/>
    </input>

    <output>
        <output-file value="D:\hhc\venet_caching\sumo-1.8.0\experiments\small\small.net.xml"/>
    </output>

    <processing>
        <geometry.min-radius.fix.railways value="false"/>
        <geometry.max-grade.fix value="false"/>
        <offset.disable-normalization value="true"/>
        <lefthand value="false"/>
    </processing>

    <junctions>
        <no-turnarounds value="true"/>
        <junctions.corner-detail value="5"/>
        <junctions.limit-turn-speed value="5.5"/>
        <rectangular-lane-cut value="false"/>
    </junctions>

    <pedestrian>
        <walkingareas value="false"/>
    </pedestrian>

    <report>
        <aggregate-warnings value="5"/>
    </report>

</configuration>
-->

<net version="1.6" junctionCornerDetail="5" limitTurnSpeed="5.50" xmlns:xsi="http://www.w3.org/2001/XMLSchema-instance" xsi:noNamespaceSchemaLocation="http://sumo.dlr.de/xsd/net_file.xsd">

    <location netOffset="0.00,0.00" convBoundary="-11.67,5.97,87.79,77.96" origBoundary="-10000000000.00,-10000000000.00,10000000000.00,10000000000.00" projParameter="!"/>

    <edge id=":gneJ0_0" function="internal">
        <lane id=":gneJ0_0_0" index="0" speed="6.07" length="7.88" shape="-8.40,79.13 -10.54,78.82 -12.05,77.89 -12.93,76.35 -13.17,74.19"/>
    </edge>
    <edge id=":gneJ0_1" function="internal">
        <lane id=":gneJ0_1_0" index="0" speed="3.90" length="2.63" shape="-9.97,74.29 -9.89,75.01 -9.60,75.52 -9.10,75.83 -8.38,75.93"/>
    </edge>
    <edge id=":gneJ1_0" function="internal">
        <lane id=":gneJ1_0_0" index="0" speed="6.07" length="8.18" shape="89.14,74.40 88.98,76.66 88.12,78.27 86.57,79.23 84.33,79.54"/>
    </edge>
    <edge id=":gneJ1_1" function="internal">
        <lane id=":gneJ1_1_0" index="0" speed="3.90" length="2.73" shape="84.34,76.34 85.09,76.24 85.61,75.92 85.89,75.38 85.94,74.63"/>
    </edge>
    <edge id=":gneJ2_0" function="internal">
        <lane id=":gneJ2_0_0" index="0" speed="3.91" length="2.48" shape="81.19,9.11 81.05,8.45 80.73,7.98 80.24,7.71 79.57,7.63"/>
    </edge>
    <edge id=":gneJ2_1" function="internal">
        <lane id=":gneJ2_1_0" index="0" speed="6.08" length="7.45" shape="79.51,4.43 81.52,4.67 83.00,5.50 83.96,6.90 84.39,8.88"/>
    </edge>
    <edge id=":gneJ3_0" function="internal">
        <lane id=":gneJ3_0_0" index="0" speed="3.91" length="2.49" shape="-6.53,9.25 -7.20,9.36 -7.69,9.65 -7.99,10.14 -8.10,10.80"/>
    </edge>
    <edge id=":gneJ3_1" function="internal">
        <lane id=":gneJ3_1_0" index="0" speed="6.08" length="7.47" shape="-11.30,10.71 -10.95,8.70 -10.05,7.26 -8.60,6.38 -6.59,6.05"/>
    </edge>

    <edge id="-gneE0" from="gneJ1" to="gneJ0" priority="-1">
        <lane id="-gneE0_0" index="0" speed="13.89" length="92.72" shape="84.33,79.54 -8.40,79.13"/>
    </edge>
    <edge id="-gneE1" from="gneJ2" to="gneJ1" priority="-1">
        <lane id="-gneE1_0" index="0" speed="13.89" length="65.69" shape="84.39,8.88 89.14,74.40"/>
    </edge>
    <edge id="-gneE2" from="gneJ3" to="gneJ2" priority="-1">
        <lane id="-gneE2_0" index="0" speed="13.89" length="86.11" shape="-6.59,6.05 79.51,4.43"/>
    </edge>
    <edge id="-gneE3" from="gneJ0" to="gneJ3" priority="-1">
        <lane id="-gneE3_0" index="0" speed="13.89" length="63.51" shape="-13.17,74.19 -11.30,10.71"/>
    </edge>
    <edge id="gneE0" from="gneJ0" to="gneJ1" priority="-1">
        <lane id="gneE0_0" index="0" speed="13.89" length="92.72" shape="-8.38,75.93 84.34,76.34"/>
    </edge>
    <edge id="gneE1" from="gneJ1" to="gneJ2" priority="-1">
        <lane id="gneE1_0" index="0" speed="13.89" length="65.69" shape="85.94,74.63 81.19,9.11"/>
    </edge>
    <edge id="gneE2" from="gneJ2" to="gneJ3" priority="-1">
        <lane id="gneE2_0" index="0" speed="13.89" length="86.11" shape="79.57,7.63 -6.53,9.25"/>
    </edge>
    <edge id="gneE3" from="gneJ3" to="gneJ0" priority="-1">
        <lane id="gneE3_0" index="0" speed="13.89" length="63.51" shape="-8.10,10.80 -9.97,74.29"/>
    </edge>

    <junction id="gneJ0" type="priority" x="-11.67" y="77.52" incLanes="-gneE0_0 gneE3_0" intLanes=":gneJ0_0_0 :gneJ0_1_0" shape="-8.40,80.73 -8.37,74.33 -14.77,74.15 -14.65,76.15 -14.15,77.79 -13.28,79.07 -12.03,79.99 -10.40,80.54">
        <request index="0" response="00" foes="00" cont="0"/>
        <request index="1" response="00" foes="00" cont="0"/>
    </junction>
    <junction id="gneJ1" type="priority" x="87.79" y="77.96" incLanes="-gneE1_0 gneE0_0" intLanes=":gneJ1_0_0 :gneJ1_1_0" shape="90.73,74.28 84.35,74.74 84.32,81.14 86.42,80.96 88.10,80.40 89.38,79.44 90.24,78.11 90.69,76.39">
        <request index="0" response="00" foes="00" cont="0"/>
        <request index="1" response="00" foes="00" cont="0"/>
    </junction>
    <junction id="gneJ2" type="priority" x="82.57" y="5.97" incLanes="gneE1_0 -gneE2_0" intLanes=":gneJ2_0_0 :gneJ2_1_0" shape="79.60,9.23 85.98,8.76 85.06,5.42 84.14,4.25 82.90,3.44 81.34,2.96 79.48,2.83">
        <request index="0" response="00" foes="00" cont="0"/>
        <request index="1" response="00" foes="00" cont="0"/>
    </junction>
    <junction id="gneJ3" type="priority" x="-9.61" y="7.71" incLanes="gneE2_0 -gneE3_0" intLanes=":gneJ3_0_0 :gneJ3_1_0" shape="-6.50,10.85 -6.62,4.45 -10.03,5.19 -11.24,6.06 -12.12,7.26 -12.67,8.80 -12.90,10.66">
        <request index="0" response="00" foes="00" cont="0"/>
        <request index="1" response="00" foes="00" cont="0"/>
    </junction>

    <connection from="-gneE0" to="-gneE3" fromLane="0" toLane="0" via=":gneJ0_0_0" dir="l" state="M"/>
    <connection from="-gneE1" to="-gneE0" fromLane="0" toLane="0" via=":gneJ1_0_0" dir="l" state="M"/>
    <connection from="-gneE2" to="-gneE1" fromLane="0" toLane="0" via=":gneJ2_1_0" dir="l" state="M"/>
    <connection from="-gneE3" to="-gneE2" fromLane="0" toLane="0" via=":gneJ3_1_0" dir="l" state="M"/>
    <connection from="gneE0" to="gneE1" fromLane="0" toLane="0" via=":gneJ1_1_0" dir="r" state="M"/>
    <connection from="gneE1" to="gneE2" fromLane="0" toLane="0" via=":gneJ2_0_0" dir="r" state="M"/>
    <connection from="gneE2" to="gneE3" fromLane="0" toLane="0" via=":gneJ3_0_0" dir="r" state="M"/>
    <connection from="gneE3" to="gneE0" fromLane="0" toLane="0" via=":gneJ0_1_0" dir="r" state="M"/>

    <connection from=":gneJ0_0" to="-gneE3" fromLane="0" toLane="0" dir="l" state="M"/>
    <connection from=":gneJ0_1" to="gneE0" fromLane="0" toLane="0" dir="r" state="M"/>
    <connection from=":gneJ1_0" to="-gneE0" fromLane="0" toLane="0" dir="l" state="M"/>
    <connection from=":gneJ1_1" to="gneE1" fromLane="0" toLane="0" dir="r" state="M"/>
    <connection from=":gneJ2_0" to="gneE2" fromLane="0" toLane="0" dir="r" state="M"/>
    <connection from=":gneJ2_1" to="-gneE1" fromLane="0" toLane="0" dir="l" state="M"/>
    <connection from=":gneJ3_0" to="gneE3" fromLane="0" toLane="0" dir="r" state="M"/>
    <connection from=":gneJ3_1" to="-gneE2" fromLane="0" toLane="0" dir="l" state="M"/>

</net>
