<?xml version="1.0" encoding="UTF-8"?>

<!-- generated on 03/01/23 21:37:48 by Eclipse SUMO netedit Version 1.8.0
<configuration xmlns:xsi="http://www.w3.org/2001/XMLSchema-instance" xsi:noNamespaceSchemaLocation="http://sumo.dlr.de/xsd/netconvertConfiguration.xsd">

    <input>
        <sumo-net-file value="D:\hhc\venet%20caching\VanetCaching\vanet\envs\berlin\berlin.net.xml"/>
    </input>

    <output>
        <output-file value="D:\hhc\venet%20caching\VanetCaching\vanet\envs\berlin\berlin.net.xml"/>
        <output.street-names value="true"/>
    </output>

    <processing>
        <geometry.min-radius.fix.railways value="false"/>
        <geometry.max-grade.fix value="false"/>
        <offset.disable-normalization value="true"/>
        <lefthand value="false"/>
    </processing>

    <junctions>
        <no-turnarounds value="true"/>
        <junctions.corner-detail value="5"/>
        <junctions.limit-turn-speed value="5.5"/>
        <rectangular-lane-cut value="false"/>
    </junctions>

    <pedestrian>
        <walkingareas value="false"/>
    </pedestrian>

    <report>
        <aggregate-warnings value="5"/>
    </report>

</configuration>
-->

<net version="1.6" junctionCornerDetail="5" limitTurnSpeed="5.50" xmlns:xsi="http://www.w3.org/2001/XMLSchema-instance" xsi:noNamespaceSchemaLocation="http://sumo.dlr.de/xsd/net_file.xsd">

    <location netOffset="-389845.91,-5818363.23" convBoundary="623.89,739.56,1385.91,1443.09" origBoundary="13.372213,52.504470,13.412727,52.523057" projParameter="+proj=utm +zone=33 +ellps=WGS84 +datum=WGS84 +units=m +no_defs"/>

    <type id="highway.bridleway" priority="1" numLanes="1" speed="2.78" allow="pedestrian" oneway="1" width="2.00"/>
    <type id="highway.bus_guideway" priority="1" numLanes="1" speed="27.78" allow="bus" oneway="1"/>
    <type id="highway.cycleway" priority="1" numLanes="1" speed="8.33" allow="bicycle" oneway="1" width="1.00"/>
    <type id="highway.footway" priority="1" numLanes="1" speed="2.78" allow="pedestrian" oneway="1" width="2.00"/>
    <type id="highway.ford" priority="1" numLanes="1" speed="2.78" allow="army" oneway="1"/>
    <type id="highway.living_street" priority="2" numLanes="1" speed="2.78" disallow="tram rail_urban rail rail_electric rail_fast ship" oneway="1"/>
    <type id="highway.motorway" priority="14" numLanes="2" speed="39.44" allow="private emergency authority army vip passenger hov taxi bus coach delivery truck trailer motorcycle evehicle custom1 custom2" oneway="1"/>
    <type id="highway.motorway_link" priority="9" numLanes="1" speed="22.22" allow="private emergency authority army vip passenger hov taxi bus coach delivery truck trailer motorcycle evehicle custom1 custom2" oneway="1"/>
    <type id="highway.path" priority="1" numLanes="1" speed="2.78" allow="pedestrian bicycle" oneway="1" width="2.00"/>
    <type id="highway.pedestrian" priority="1" numLanes="1" speed="2.78" allow="pedestrian" oneway="1" width="2.00"/>
    <type id="highway.primary" priority="12" numLanes="2" speed="27.78" disallow="tram rail_urban rail rail_electric rail_fast ship" oneway="1"/>
    <type id="highway.primary_link" priority="7" numLanes="1" speed="22.22" disallow="tram rail_urban rail rail_electric rail_fast ship" oneway="1"/>
    <type id="highway.raceway" priority="15" numLanes="2" speed="83.33" allow="vip" oneway="1"/>
    <type id="highway.residential" priority="3" numLanes="1" speed="13.89" disallow="tram rail_urban rail rail_electric rail_fast ship" oneway="1"/>
    <type id="highway.secondary" priority="11" numLanes="1" speed="27.78" disallow="tram rail_urban rail rail_electric rail_fast ship" oneway="1"/>
    <type id="highway.secondary_link" priority="6" numLanes="1" speed="22.22" disallow="tram rail_urban rail rail_electric rail_fast ship" oneway="1"/>
    <type id="highway.service" priority="1" numLanes="1" speed="5.56" allow="pedestrian delivery bicycle" oneway="1"/>
    <type id="highway.stairs" priority="1" numLanes="1" speed="1.39" allow="pedestrian" oneway="1" width="2.00"/>
    <type id="highway.step" priority="1" numLanes="1" speed="1.39" allow="pedestrian" oneway="1" width="2.00"/>
    <type id="highway.steps" priority="1" numLanes="1" speed="1.39" allow="pedestrian" oneway="1" width="2.00"/>
    <type id="highway.tertiary" priority="10" numLanes="1" speed="22.22" disallow="tram rail_urban rail rail_electric rail_fast ship" oneway="1"/>
    <type id="highway.tertiary_link" priority="5" numLanes="1" speed="22.22" disallow="tram rail_urban rail rail_electric rail_fast ship" oneway="1"/>
    <type id="highway.track" priority="1" numLanes="1" speed="5.56" allow="pedestrian motorcycle moped bicycle" oneway="1"/>
    <type id="highway.trunk" priority="13" numLanes="2" speed="27.78" disallow="pedestrian bicycle tram rail_urban rail rail_electric rail_fast ship" oneway="1"/>
    <type id="highway.trunk_link" priority="8" numLanes="1" speed="22.22" disallow="pedestrian bicycle tram rail_urban rail rail_electric rail_fast ship" oneway="1"/>
    <type id="highway.unclassified" priority="4" numLanes="1" speed="13.89" disallow="tram rail_urban rail rail_electric rail_fast ship" oneway="1"/>
    <type id="highway.unsurfaced" priority="1" numLanes="1" speed="8.33" disallow="tram rail_urban rail rail_electric rail_fast ship" oneway="1"/>
    <type id="railway.highspeed" priority="21" numLanes="1" speed="69.44" allow="rail_fast" oneway="1"/>
    <type id="railway.light_rail" priority="19" numLanes="1" speed="27.78" allow="rail_urban" oneway="1"/>
    <type id="railway.preserved" priority="16" numLanes="1" speed="27.78" allow="rail" oneway="1"/>
    <type id="railway.rail" priority="20" numLanes="1" speed="44.44" allow="rail" oneway="1"/>
    <type id="railway.subway" priority="18" numLanes="1" speed="27.78" allow="rail_urban" oneway="1"/>
    <type id="railway.tram" priority="17" numLanes="1" speed="13.89" allow="tram" oneway="1"/>

    <edge id=":20246257_0" function="internal">
        <lane id=":20246257_0_0" index="0" disallow="tram rail_urban rail rail_electric rail_fast ship" speed="7.54" length="12.21" shape="852.87,1254.76 848.89,1254.87 845.97,1255.79 844.11,1257.50 843.32,1260.02"/>
    </edge>
    <edge id=":20246257_1" function="internal">
        <lane id=":20246257_1_0" index="0" disallow="tram rail_urban rail rail_electric rail_fast ship" speed="8.33" length="27.28" shape="852.87,1254.76 825.63,1252.92"/>
        <lane id=":20246257_1_1" index="1" disallow="tram rail_urban rail rail_electric rail_fast ship" speed="8.33" length="27.28" shape="853.07,1251.56 825.86,1249.73"/>
    </edge>
    <edge id=":20246257_3" function="internal">
        <lane id=":20246257_3_0" index="0" disallow="tram rail_urban rail rail_electric rail_fast ship" speed="9.82" length="22.14" shape="853.07,1251.56 846.44,1250.38 841.84,1247.80 839.27,1243.83 838.73,1238.46"/>
    </edge>
    <edge id=":20246257_4" function="internal">
        <lane id=":20246257_4_0" index="0" disallow="tram rail_urban rail rail_electric rail_fast ship" speed="3.65" length="4.67" shape="853.07,1251.56 851.92,1250.69 851.57,1249.86 852.02,1249.09 853.27,1248.37"/>
    </edge>
    <edge id=":20246257_5" function="internal">
        <lane id=":20246257_5_0" index="0" disallow="tram rail_urban rail rail_electric rail_fast ship" speed="6.47" length="9.03" shape="848.30,1239.21 848.46,1241.69 849.37,1243.51 851.05,1244.67 853.47,1245.17"/>
    </edge>
    <edge id=":20246257_6" function="internal">
        <lane id=":20246257_6_0" index="0" disallow="tram rail_urban rail rail_electric rail_fast ship" speed="13.89" length="21.45" shape="848.30,1239.21 847.30,1245.56 845.84,1249.88 844.36,1254.07 843.32,1260.02"/>
        <lane id=":20246257_6_1" index="1" disallow="tram rail_urban rail rail_electric rail_fast ship" speed="13.89" length="21.45" shape="845.11,1238.96 844.11,1245.30 842.65,1249.60 841.18,1253.78 840.13,1259.73"/>
    </edge>
    <edge id=":20246257_8" function="internal">
        <lane id=":20246257_8_0" index="0" disallow="tram rail_urban rail rail_electric rail_fast ship" speed="9.89" length="22.09" shape="841.92,1238.71 840.56,1243.93 837.43,1247.51 832.53,1249.44 825.86,1249.73"/>
    </edge>
    <edge id=":20246257_9" function="internal">
        <lane id=":20246257_9_0" index="0" disallow="tram rail_urban rail rail_electric rail_fast ship" speed="6.58" length="9.20" shape="826.32,1243.35 828.79,1243.16 830.62,1242.20 831.80,1240.46 832.35,1237.96"/>
    </edge>
    <edge id=":20246257_10" function="internal">
        <lane id=":20246257_10_0" index="0" disallow="tram rail_urban rail rail_electric rail_fast ship" speed="8.33" length="27.23" shape="826.32,1243.35 853.47,1245.17"/>
        <lane id=":20246257_10_1" index="1" disallow="tram rail_urban rail rail_electric rail_fast ship" speed="8.33" length="27.23" shape="826.09,1246.54 853.27,1248.37"/>
    </edge>
    <edge id=":20246257_12" function="internal">
        <lane id=":20246257_12_0" index="0" disallow="tram rail_urban rail rail_electric rail_fast ship" speed="9.76" length="21.99" shape="826.09,1246.54 832.65,1247.76 837.18,1250.37 839.67,1254.36 840.13,1259.73"/>
    </edge>
    <edge id=":20246257_13" function="internal">
        <lane id=":20246257_13_0" index="0" disallow="tram rail_urban rail rail_electric rail_fast ship" speed="3.65" length="4.67" shape="826.09,1246.54 827.23,1247.42 827.57,1248.25 827.12,1249.02 825.86,1249.73"/>
    </edge>
    <edge id=":20246257_14" function="internal">
        <lane id=":20246257_14_0" index="0" disallow="tram rail_urban rail rail_electric rail_fast ship" speed="7.23" length="11.57" shape="833.76,1259.14 833.44,1256.65 831.98,1254.78 829.38,1253.54 825.63,1252.92"/>
    </edge>
    <edge id=":20246257_15" function="internal">
        <lane id=":20246257_15_0" index="0" disallow="tram rail_urban rail rail_electric rail_fast ship" speed="13.89" length="21.03" shape="833.76,1259.14 835.54,1238.21"/>
        <lane id=":20246257_15_1" index="1" disallow="tram rail_urban rail rail_electric rail_fast ship" speed="13.89" length="21.03" shape="836.94,1259.44 838.73,1238.46"/>
    </edge>
    <edge id=":20246257_17" function="internal">
        <lane id=":20246257_17_0" index="0" disallow="tram rail_urban rail rail_electric rail_fast ship" speed="10.00" length="22.27" shape="836.94,1259.44 838.38,1254.23 841.58,1250.65 846.54,1248.70 853.27,1248.37"/>
    </edge>
    <edge id=":20246257_18" function="internal">
        <lane id=":20246257_18_0" index="0" disallow="tram rail_urban rail rail_electric rail_fast ship" speed="3.65" length="4.67" shape="836.94,1259.44 837.85,1258.32 838.68,1257.99 839.44,1258.46 840.13,1259.73"/>
    </edge>
    <edge id=":2045820585_0" function="internal">
        <lane id=":2045820585_0_0" index="0" disallow="tram rail_urban rail rail_electric rail_fast ship" speed="13.89" length="0.22" shape="838.68,1310.53 838.67,1310.72"/>
        <lane id=":2045820585_0_1" index="1" disallow="tram rail_urban rail rail_electric rail_fast ship" speed="13.89" length="0.22" shape="835.50,1310.24 835.48,1310.49"/>
    </edge>
    <edge id=":2045820585_2" function="internal">
        <lane id=":2045820585_2_0" index="0" disallow="tram rail_urban rail rail_electric rail_fast ship" speed="13.89" length="0.34" shape="829.09,1310.02 829.12,1309.65"/>
        <lane id=":2045820585_2_1" index="1" disallow="tram rail_urban rail rail_electric rail_fast ship" speed="13.89" length="0.34" shape="832.28,1310.25 832.31,1309.94"/>
    </edge>
    <edge id=":2098466775_0" function="internal">
        <lane id=":2098466775_0_0" index="0" disallow="tram rail_urban rail rail_electric rail_fast ship" speed="8.33" length="1.00" shape="821.88,855.21 822.40,855.88"/>
        <lane id=":2098466775_0_1" index="1" disallow="tram rail_urban rail rail_electric rail_fast ship" speed="5.16" length="1.00" shape="823.77,852.63 823.48,852.50 823.25,852.55 823.00,852.65 822.66,852.69"/>
    </edge>
    <edge id=":2098466775_2" function="internal">
        <lane id=":2098466775_2_0" index="0" disallow="tram rail_urban rail rail_electric rail_fast ship" speed="3.96" length="1.85" shape="823.77,852.63 822.97,851.86 822.74,851.15"/>
    </edge>
    <edge id=":2098466775_6" function="internal">
        <lane id=":2098466775_6_0" index="0" disallow="tram rail_urban rail rail_electric rail_fast ship" speed="3.96" length="1.85" shape="822.74,851.15 823.10,850.49 824.03,849.89"/>
    </edge>
    <edge id=":2098466775_3" function="internal">
        <lane id=":2098466775_3_0" index="0" disallow="tram rail_urban rail rail_electric rail_fast ship" speed="8.33" length="1.01" shape="823.19,846.31 822.66,846.99"/>
        <lane id=":2098466775_3_1" index="1" disallow="tram rail_urban rail rail_electric rail_fast ship" speed="5.39" length="1.01" shape="822.92,849.50 824.03,849.89"/>
    </edge>
    <edge id=":2098466775_5" function="internal">
        <lane id=":2098466775_5_0" index="0" disallow="tram rail_urban rail rail_electric rail_fast ship" speed="3.65" length="2.34" shape="822.92,849.50 824.05,850.40 824.39,851.23"/>
    </edge>
    <edge id=":2098466775_7" function="internal">
        <lane id=":2098466775_7_0" index="0" disallow="tram rail_urban rail rail_electric rail_fast ship" speed="3.65" length="2.34" shape="824.39,851.23 823.92,851.99 822.66,852.69"/>
    </edge>
    <edge id=":2264199819_0" function="internal">
        <lane id=":2264199819_0_0" index="0" disallow="tram rail_urban rail rail_electric rail_fast ship" speed="6.58" length="9.04" shape="833.80,1373.04 833.93,1375.49 834.81,1377.33 836.46,1378.57 838.86,1379.22"/>
    </edge>
    <edge id=":2264199819_1" function="internal">
        <lane id=":2264199819_1_0" index="0" disallow="tram rail_urban rail rail_electric rail_fast ship" speed="8.05" length="14.03" shape="830.60,1372.82 830.81,1376.61 832.18,1379.47 834.74,1381.40 838.47,1382.39"/>
    </edge>
    <edge id=":2264199819_2" function="internal">
        <lane id=":2264199819_2_0" index="0" disallow="tram rail_urban rail rail_electric rail_fast ship" speed="8.72" length="16.62" shape="830.60,1372.82 830.67,1378.00 831.94,1381.86 834.41,1384.38 838.08,1385.57"/>
    </edge>
    <edge id=":2264199819_3" function="internal">
        <lane id=":2264199819_3_0" index="0" disallow="tram rail_urban rail rail_electric rail_fast ship" speed="3.65" length="4.67" shape="830.60,1372.82 829.72,1373.96 828.90,1374.31 828.13,1373.85 827.41,1372.60"/>
    </edge>
    <edge id=":2264199819_4" function="internal">
        <lane id=":2264199819_4_0" index="0" disallow="tram rail_urban rail rail_electric rail_fast ship" speed="6.87" length="10.03" shape="818.12,1378.81 820.56,1378.56 822.38,1377.40 823.60,1375.34 824.22,1372.38"/>
    </edge>
    <edge id=":2264199819_5" function="internal">
        <lane id=":2264199819_5_0" index="0" disallow="tram rail_urban rail rail_electric rail_fast ship" speed="7.64" length="12.64" shape="818.12,1378.81 821.95,1378.66 824.78,1377.57 826.60,1375.55 827.41,1372.60"/>
    </edge>
    <edge id=":2264199819_6" function="internal">
        <lane id=":2264199819_6_0" index="0" disallow="tram rail_urban rail rail_electric rail_fast ship" speed="13.89" length="20.52" shape="818.12,1378.81 824.21,1379.51 828.31,1380.41 832.41,1381.40 838.47,1382.39"/>
        <lane id=":2264199819_6_1" index="1" disallow="tram rail_urban rail rail_electric rail_fast ship" speed="13.89" length="20.52" shape="817.90,1382.01 823.93,1382.70 828.00,1383.59 832.07,1384.59 838.08,1385.57"/>
        <lane id=":2264199819_6_2" index="2" disallow="tram rail_urban rail rail_electric rail_fast ship" speed="13.89" length="20.52" shape="817.67,1385.20 823.65,1385.88 827.69,1386.78 831.73,1387.77 837.68,1388.74"/>
    </edge>
    <edge id=":25661386_0" function="internal">
        <lane id=":25661386_0_0" index="0" disallow="tram rail_urban rail rail_electric rail_fast ship" speed="6.51" length="9.05" shape="654.95,1138.96 652.47,1139.11 650.63,1140.00 649.43,1141.66 648.88,1144.07"/>
    </edge>
    <edge id=":25661386_1" function="internal">
        <lane id=":25661386_1_0" index="0" disallow="tram rail_urban rail rail_electric rail_fast ship" speed="8.00" length="14.22" shape="655.22,1135.78 651.32,1136.00 648.43,1137.41 646.56,1140.02 645.69,1143.81"/>
    </edge>
    <edge id=":25661386_2" function="internal">
        <lane id=":25661386_2_0" index="0" disallow="tram rail_urban rail rail_electric rail_fast ship" speed="8.67" length="16.89" shape="655.22,1135.78 649.93,1135.88 646.04,1137.21 643.57,1139.77 642.50,1143.55"/>
    </edge>
    <edge id=":25661386_3" function="internal">
        <lane id=":25661386_3_0" index="0" disallow="tram rail_urban rail rail_electric rail_fast ship" speed="3.65" length="2.66" shape="655.22,1135.78 654.09,1134.88 653.76,1134.05 653.93,1133.77"/>
    </edge>
    <edge id=":25661386_10" function="internal">
        <lane id=":25661386_10_0" index="0" disallow="tram rail_urban rail rail_electric rail_fast ship" speed="3.65" length="2.02" shape="653.93,1133.77 654.23,1133.28 655.49,1132.59"/>
    </edge>
    <edge id=":25661386_4" function="internal">
        <lane id=":25661386_4_0" index="0" disallow="tram rail_urban rail rail_electric rail_fast ship" speed="6.49" length="9.03" shape="650.68,1123.34 650.81,1125.81 651.70,1127.65 653.35,1128.84 655.76,1129.40"/>
    </edge>
    <edge id=":25661386_5" function="internal">
        <lane id=":25661386_5_0" index="0" disallow="tram rail_urban rail rail_electric rail_fast ship" speed="7.31" length="11.74" shape="650.68,1123.34 650.68,1127.21 651.48,1130.04 653.09,1131.83 655.49,1132.59"/>
    </edge>
    <edge id=":25661386_6" function="internal">
        <lane id=":25661386_6_0" index="0" disallow="tram rail_urban rail rail_electric rail_fast ship" speed="11.11" length="20.86" shape="650.68,1123.34 648.88,1144.07"/>
        <lane id=":25661386_6_1" index="1" disallow="tram rail_urban rail rail_electric rail_fast ship" speed="11.11" length="20.86" shape="647.50,1123.05 645.69,1143.81"/>
        <lane id=":25661386_6_2" index="2" disallow="tram rail_urban rail rail_electric rail_fast ship" speed="11.11" length="20.86" shape="644.31,1122.75 642.50,1143.55"/>
        <lane id=":25661386_6_3" index="3" disallow="tram rail_urban rail rail_electric rail_fast ship" speed="11.11" length="20.86" shape="641.12,1122.46 639.31,1143.29"/>
    </edge>
    <edge id=":25661397_0" function="internal">
        <lane id=":25661397_0_0" index="0" disallow="tram rail_urban rail rail_electric rail_fast ship" speed="6.48" length="9.03" shape="629.64,1359.37 629.72,1361.85 630.57,1363.70 632.20,1364.92 634.61,1365.51"/>
    </edge>
    <edge id=":25661397_1" function="internal">
        <lane id=":25661397_1_0" index="0" disallow="tram rail_urban rail rail_electric rail_fast ship" speed="7.98" length="14.24" shape="626.46,1359.02 626.58,1362.92 627.93,1365.84 630.50,1367.76 634.29,1368.69"/>
    </edge>
    <edge id=":25661397_2" function="internal">
        <lane id=":25661397_2_0" index="0" disallow="tram rail_urban rail rail_electric rail_fast ship" speed="8.65" length="16.92" shape="626.46,1359.02 626.43,1364.31 627.67,1368.22 630.19,1370.74 633.98,1371.88"/>
    </edge>
    <edge id=":25661397_3" function="internal">
        <lane id=":25661397_3_0" index="0" disallow="tram rail_urban rail rail_electric rail_fast ship" speed="3.65" length="4.67" shape="626.46,1359.02 625.53,1360.12 624.69,1360.43 623.94,1359.94 623.28,1358.66"/>
    </edge>
    <edge id=":25661966_0" function="internal">
        <lane id=":25661966_0_0" index="0" disallow="tram rail_urban rail rail_electric rail_fast ship" speed="6.46" length="8.96" shape="663.63,1040.40 661.05,1040.49 659.14,1041.31 657.92,1042.85 657.37,1045.12"/>
    </edge>
    <edge id=":25661966_1" function="internal">
        <lane id=":25661966_1_0" index="0" disallow="tram rail_urban rail rail_electric rail_fast ship" speed="8.08" length="14.62" shape="664.48,1037.26 660.22,1037.41 657.09,1038.72 655.08,1041.21 654.18,1044.87"/>
    </edge>
    <edge id=":25661966_2" function="internal">
        <lane id=":25661966_2_0" index="0" disallow="tram rail_urban rail rail_electric rail_fast ship" speed="8.33" length="17.35" shape="664.48,1037.26 658.83,1037.28 654.70,1038.51 652.09,1040.96 650.99,1044.61"/>
    </edge>
    <edge id=":25661966_3" function="internal">
        <lane id=":25661966_3_0" index="0" disallow="tram rail_urban rail rail_electric rail_fast ship" speed="3.67" length="4.74" shape="664.48,1037.26 663.51,1036.16 663.34,1035.27 663.94,1034.59 665.33,1034.13"/>
    </edge>
    <edge id=":25661966_4" function="internal">
        <lane id=":25661966_4_0" index="0" disallow="tram rail_urban rail rail_electric rail_fast ship" speed="7.24" length="11.24" shape="658.97,1024.15 659.26,1026.88 660.56,1028.93 662.87,1030.30 666.18,1030.99"/>
    </edge>
    <edge id=":25661966_5" function="internal">
        <lane id=":25661966_5_0" index="0" disallow="tram rail_urban rail rail_electric rail_fast ship" speed="7.84" length="13.35" shape="658.97,1024.15 659.13,1028.28 660.24,1031.31 662.30,1033.26 665.33,1034.13"/>
    </edge>
    <edge id=":25661966_6" function="internal">
        <lane id=":25661966_6_0" index="0" disallow="tram rail_urban rail rail_electric rail_fast ship" speed="11.11" length="21.00" shape="658.97,1024.15 657.37,1045.12"/>
        <lane id=":25661966_6_1" index="1" disallow="tram rail_urban rail rail_electric rail_fast ship" speed="11.11" length="21.00" shape="655.78,1023.92 654.18,1044.87"/>
        <lane id=":25661966_6_2" index="2" disallow="tram rail_urban rail rail_electric rail_fast ship" speed="11.11" length="21.00" shape="652.59,1023.68 650.99,1044.61"/>
        <lane id=":25661966_6_3" index="3" disallow="tram rail_urban rail rail_electric rail_fast ship" speed="11.11" length="21.00" shape="649.40,1023.44 647.80,1044.36"/>
    </edge>
    <edge id=":25661967_0" function="internal">
        <lane id=":25661967_0_0" index="0" disallow="tram rail_urban rail rail_electric rail_fast ship" speed="6.50" length="9.03" shape="670.51,943.37 668.03,943.53 666.21,944.44 665.03,946.11 664.51,948.53"/>
    </edge>
    <edge id=":25661967_1" function="internal">
        <lane id=":25661967_1_0" index="0" disallow="tram rail_urban rail rail_electric rail_fast ship" speed="7.99" length="14.21" shape="670.76,940.18 666.87,940.43 664.00,941.87 662.15,944.49 661.31,948.29"/>
    </edge>
    <edge id=":25661967_2" function="internal">
        <lane id=":25661967_2_0" index="0" disallow="tram rail_urban rail rail_electric rail_fast ship" speed="8.66" length="16.88" shape="670.76,940.18 665.47,940.32 661.60,941.68 659.15,944.26 658.12,948.06"/>
    </edge>
    <edge id=":25661967_3" function="internal">
        <lane id=":25661967_3_0" index="0" disallow="tram rail_urban rail rail_electric rail_fast ship" speed="9.86" length="22.01" shape="670.76,940.18 664.17,938.92 659.59,936.31 657.02,932.36 656.46,927.07"/>
    </edge>
    <edge id=":25661967_4" function="internal">
        <lane id=":25661967_4_0" index="0" disallow="tram rail_urban rail rail_electric rail_fast ship" speed="9.28" length="19.37" shape="670.76,940.18 665.57,939.03 661.99,936.49 660.01,932.59 659.65,927.31"/>
    </edge>
    <edge id=":25661967_5" function="internal">
        <lane id=":25661967_5_0" index="0" disallow="tram rail_urban rail rail_electric rail_fast ship" speed="3.65" length="4.67" shape="670.76,940.18 669.62,939.29 669.29,938.46 669.75,937.70 671.01,936.99"/>
    </edge>
    <edge id=":25661967_6" function="internal">
        <lane id=":25661967_6_0" index="0" disallow="tram rail_urban rail rail_electric rail_fast ship" speed="6.53" length="9.08" shape="666.04,927.78 666.21,930.25 667.13,932.08 668.82,933.26 671.26,933.80"/>
    </edge>
    <edge id=":25661967_7" function="internal">
        <lane id=":25661967_7_0" index="0" disallow="tram rail_urban rail rail_electric rail_fast ship" speed="7.35" length="11.76" shape="666.04,927.78 666.10,931.65 666.95,934.47 668.59,936.25 671.01,936.99"/>
    </edge>
    <edge id=":25661967_8" function="internal">
        <lane id=":25661967_8_0" index="0" disallow="tram rail_urban rail rail_electric rail_fast ship" speed="13.89" length="22.05" shape="666.04,927.78 664.60,933.63 662.10,937.59 659.59,941.72 658.12,948.06"/>
        <lane id=":25661967_8_1" index="1" disallow="tram rail_urban rail rail_electric rail_fast ship" speed="13.89" length="22.05" shape="662.84,927.54 661.41,933.39 658.91,937.35 656.40,941.48 654.93,947.83"/>
    </edge>
    <edge id=":25661967_10" function="internal">
        <lane id=":25661967_10_0" index="0" disallow="tram rail_urban rail rail_electric rail_fast ship" speed="3.65" length="4.67" shape="662.84,927.54 661.96,928.68 661.13,929.02 660.36,928.56 659.65,927.31"/>
    </edge>
    <edge id=":25661969_0" function="internal">
        <lane id=":25661969_0_0" index="0" disallow="tram rail_urban rail rail_electric rail_fast ship" speed="6.50" length="9.03" shape="678.36,844.04 675.89,844.19 674.06,845.09 672.88,846.75 672.33,849.16"/>
    </edge>
    <edge id=":25661969_1" function="internal">
        <lane id=":25661969_1_0" index="0" disallow="tram rail_urban rail rail_electric rail_fast ship" speed="9.32" length="19.31" shape="678.63,840.85 673.45,839.68 669.85,837.16 667.84,833.28 667.41,828.05"/>
    </edge>
    <edge id=":25661969_2" function="internal">
        <lane id=":25661969_2_0" index="0" disallow="tram rail_urban rail rail_electric rail_fast ship" speed="3.65" length="4.67" shape="678.63,840.85 677.50,839.95 677.16,839.12 677.63,838.36 678.89,837.66"/>
    </edge>
    <edge id=":25661969_3" function="internal">
        <lane id=":25661969_3_0" index="0" disallow="tram rail_urban rail rail_electric rail_fast ship" speed="6.59" length="9.15" shape="673.80,828.45 674.01,830.91 674.97,832.73 676.68,833.92 679.15,834.47"/>
    </edge>
    <edge id=":25661969_4" function="internal">
        <lane id=":25661969_4_0" index="0" disallow="tram rail_urban rail rail_electric rail_fast ship" speed="13.89" length="20.74" shape="673.80,828.45 672.33,849.16"/>
        <lane id=":25661969_4_1" index="1" disallow="tram rail_urban rail rail_electric rail_fast ship" speed="13.89" length="20.74" shape="670.60,828.25 669.14,848.91"/>
    </edge>
    <edge id=":25661969_6" function="internal">
        <lane id=":25661969_6_0" index="0" disallow="tram rail_urban rail rail_electric rail_fast ship" speed="3.65" length="2.34" shape="670.60,828.25 669.73,829.40 668.91,829.75"/>
    </edge>
    <edge id=":25661969_11" function="internal">
        <lane id=":25661969_11_0" index="0" disallow="tram rail_urban rail rail_electric rail_fast ship" speed="3.65" length="2.34" shape="668.91,829.75 668.14,829.30 667.41,828.05"/>
    </edge>
    <edge id=":25661969_7" function="internal">
        <lane id=":25661969_7_0" index="0" disallow="tram rail_urban rail rail_electric rail_fast ship" speed="13.89" length="20.62" shape="662.76,848.39 664.22,827.86"/>
        <lane id=":25661969_7_1" index="1" disallow="tram rail_urban rail rail_electric rail_fast ship" speed="13.89" length="20.62" shape="665.95,848.65 667.41,828.05"/>
    </edge>
    <edge id=":25661969_9" function="internal">
        <lane id=":25661969_9_0" index="0" disallow="tram rail_urban rail rail_electric rail_fast ship" speed="9.26" length="6.84" shape="665.95,848.65 667.12,843.47 668.01,842.23"/>
    </edge>
    <edge id=":25661969_10" function="internal">
        <lane id=":25661969_10_0" index="0" disallow="tram rail_urban rail rail_electric rail_fast ship" speed="3.65" length="2.34" shape="665.95,848.65 666.84,847.52 667.67,847.18"/>
    </edge>
    <edge id=":25661969_12" function="internal">
        <lane id=":25661969_12_0" index="0" disallow="tram rail_urban rail rail_electric rail_fast ship" speed="9.26" length="12.53" shape="668.01,842.23 669.67,839.92 673.59,837.98 678.89,837.66"/>
    </edge>
    <edge id=":25661969_13" function="internal">
        <lane id=":25661969_13_0" index="0" disallow="tram rail_urban rail rail_electric rail_fast ship" speed="3.65" length="2.34" shape="667.67,847.18 668.44,847.65 669.14,848.91"/>
    </edge>
    <edge id=":25662041_0" function="internal">
        <lane id=":25662041_0_0" index="0" disallow="tram rail_urban rail rail_electric rail_fast ship" speed="3.90" length="2.63" shape="680.56,744.93 679.84,744.97 679.30,745.23 678.97,745.71 678.82,746.42"/>
    </edge>
    <edge id=":25662041_1" function="internal">
        <lane id=":25662041_1_0" index="0" disallow="tram rail_urban rail rail_electric rail_fast ship" speed="6.07" length="7.90" shape="680.84,741.74 678.67,741.86 677.08,742.64 676.06,744.10 675.62,746.23"/>
    </edge>
    <edge id=":25662041_2" function="internal">
        <lane id=":25662041_2_0" index="0" disallow="tram rail_urban rail rail_electric rail_fast ship" speed="3.65" length="4.67" shape="680.84,741.74 679.72,740.84 679.39,740.00 679.86,739.24 681.13,738.55"/>
    </edge>
    <edge id=":25662041_3" function="internal">
        <lane id=":25662041_3_0" index="0" disallow="tram rail_urban rail rail_electric rail_fast ship" speed="8.96" length="18.43" shape="669.24,745.84 670.26,740.87 672.63,737.47 676.35,735.63 681.41,735.36"/>
    </edge>
    <edge id=":25662041_4" function="internal">
        <lane id=":25662041_4_0" index="0" disallow="tram rail_urban rail rail_electric rail_fast ship" speed="7.65" length="13.17" shape="672.43,746.03 673.16,742.48 674.86,740.06 677.51,738.74 681.13,738.55"/>
    </edge>
    <edge id=":25662041_5" function="internal">
        <lane id=":25662041_5_0" index="0" disallow="tram rail_urban rail rail_electric rail_fast ship" speed="3.65" length="4.67" shape="672.43,746.03 673.30,744.88 674.13,744.53 674.90,744.98 675.62,746.23"/>
    </edge>
    <edge id=":25662542_0" function="internal">