<?xml version="1.0" encoding="UTF-8"?>

<!-- generated on 03/06/23 20:29:46 by Eclipse SUMO duarouter Version 1.8.0
<configuration xmlns:xsi="http://www.w3.org/2001/XMLSchema-instance" xsi:noNamespaceSchemaLocation="http://sumo.dlr.de/xsd/duarouterConfiguration.xsd">

    <input>
        <net-file value="berlin.net.xml"/>
        <route-files value="trips.trips.xml"/>
    </input>

    <output>
        <output-file value="berlin.rou.xml"/>
        <alternatives-output value="berlin.rou.alt.xml"/>
    </output>

    <time>
        <begin value="0"/>
        <end value="500"/>
    </time>

    <report>
        <no-warnings value="true"/>
        <ignore-errors value="true"/>
        <no-step-log value="true"/>
    </report>

</configuration>
-->

<routes xmlns:xsi="http://www.w3.org/2001/XMLSchema-instance" xsi:noNamespaceSchemaLocation="http://sumo.dlr.de/xsd/routes_file.xsd">
    <vehicle id="0" depart="0.00">
        <route edges="4588220#0 -874528353#4 gneE1 gneE0 196850606#0 196850606#1 196850606#6"/>
    </vehicle>
    <vehicle id="1" depart="0.60">
        <route edges="24913267#0 326116286#0 -874528353#4 gneE1 gneE0 196850606#0 840229277 gneE2 35557161#4 -35557161#4"/>
    </vehicle>
    <vehicle id="2" depart="1.20">
        <route edges="66071379#0 474362272 66071370 -66071366#4 -66071366#2 -389101365#3 -35557143#4 -292429056#5 4588220#0 -326116286#2 -24913267#3"/>
    </vehicle>
    <vehicle id="3" depart="1.80">
        <route edges="66071379#0 474362272 -474362271"/>
    </vehicle>
    <vehicle id="4" depart="2.40">
        <route edges="24913267#0 326116286#0 -874528353#4 24242882 1105574291#0 4611706#0"/>
    </vehicle>
    <vehicle id="5" depart="3.00">
        <route edges="196850606#6 -196850606#8 47707171#5 -24997595#1 389101373#0 23755961#0 -23755961#1"/>
    </vehicle>
    <vehicle id="6" depart="3.60">
        <route edges="4611713#0 -4611713#0 -66071366#4 -66071366#2 -389101365#3 -gneE3 -24242882 882389497 194069450#0 461526152#0 1079495669#0"/>
    </vehicle>
    <vehicle id="7" depart="4.20">
        <route edges="-1105574289#1 23755961#2 4611712"/>
    </vehicle>
    <vehicle id="8" depart="4.80">
        <route edges="-23017852#0 4611710#0 -gneE2 -840229277 -4588222#1 168935757#0"/>
    </vehicle>
    <vehicle id="9" depart="5.40">
        <route edges="66071379#0 474362272 66071370 -66071366#4 4773029#0 28251222#0 -28251222#2"/>
    </vehicle>
    <vehicle id="10" depart="6.00">
        <route edges="-35557161#3 -35557161#2 66071366#0 66071366#3 -66071370 -474362271"/>
    </vehicle>
    <vehicle id="11" depart="6.60">
        <route edges="753316505#0 1110748916 4588220#0 -326116286#2 -24913267#3 342968607#0 461526152#0 66071373#0"/>
    </vehicle>
    <vehicle id="12" depart="7.20">
        <route edges="47707170#3 1073015934 196850606#6 -375459783#1"/>
    </vehicle>
    <vehicle id="13" depart="7.80">
        <route edges="4611710#0 -gneE2 -840229277 196850606#1 47707170#3 47755711#0"/>
    </vehicle>
    <vehicle id="14" depart="8.40">
        <route edges="-4611710#2 23017852#0 -23017852#0 4611710#0 -gneE2 -840229277 -196850606#0 -gneE0 -gneE1 882389497"/>
    </vehicle>
    <vehicle id="15" depart="9.00">
        <route edges="-23017852#3 -23017853 -4611713#1 -4611713#0 -66071370 -474362271"/>
    </vehicle>
    <vehicle id="16" depart="9.60">
        <route edges="-gneE1 882389497 194069450#0"/>
    </vehicle>
    <vehicle id="17" depart="10.20">
        <route edges="168935757#0 -168935757#2 4588222#0"/>
    </vehicle>
    <vehicle id="18" depart="10.80">
        <route edges="35557161#3 -35557161#3 -35557161#2 66071366#0 4773029#0 28251222#0 340498982#4"/>
    </vehicle>
    <vehicle id="19" depart="11.40">
        <route edges="-23017852#0 4611710#0 -gneE2 22972473#5 1116358457 -24997595#1"/>
    </vehicle>
    <vehicle id="20" depart="12.00">
        <route edges="28251222#0 -28251222#2 -4773029#2 -66071366#2 35557161#0 35557161#3 -gneE2 22972473#5"/>
    </vehicle>
    <vehicle id="21" depart="12.60">
        <route edges="1105574291#0 4611706#0 35557161#0 -35557161#2"/>
    </vehicle>
    <vehicle id="22" depart="13.20">
        <route edges="-196850606#8 -196850606#4 840229277 gneE2 -4611710#2 23017852#0 -23017853 23017853"/>
    </vehicle>
    <vehicle id="23" depart="13.80">
        <route edges="168935757#3 -168935757#3 -168935757#2 753316505#0 1110748916 292429056#0 35557143#0 389101365#0 66071366#0 4773029#0"/>
    </vehicle>
    <vehicle id="24" depart="14.40">
        <route edges="22972473#0 -840229275 -gneE0 -gneE1 882389497 194069450#0 461526152#0 1079495669#0 340498982#0 -28251222#2"/>
    </vehicle>
    <vehicle id="25" depart="15.00">
        <route edges="1116358457 1073015936 -196850606#4 -196850606#0 -gneE0 -gneE1 882389497 194069450#0 461526152#0 1079495669#0 340498982#0 340498982#4"/>
    </vehicle>
    <vehicle id="26" depart="15.60">
        <route edges="-28251222#2 -4773029#2 -66071366#2"/>
    </vehicle>
    <vehicle id="27" depart="16.20">
        <route edges="461526152#0 66071373#0 gneE3 389101365#0"/>
    </vehicle>
    <vehicle id="28" depart="16.80">
        <route edges="-66071370 -474362271"/>
    </vehicle>
    <vehicle id="29" depart="17.40">
        <route edges="66071379#0 474362272 66071370 -66071366#4 -66071366#2 35557161#0 35557161#3 35557161#4 1105574289#0"/>
    </vehicle>
    <vehicle id="30" depart="18.00">
        <route edges="-gneE3 1105574291#0 4611706#0 66071366#0"/>
    </vehicle>
    <vehicle id="31" depart="18.60">
        <route edges="1110748916 292429056#0 gneE0 196850606#0 -4588222#1 753316505#0"/>
    </vehicle>
    <vehicle id="32" depart="19.20">
        <route edges="4588219#0 -gneE0 -gneE1 882389497 194069450#0 -194069450#2 -882389497"/>
    </vehicle>
    <vehicle id="33" depart="19.80">
        <route edges="-43376693#2 -4611712 -23755961#2"/>
    </vehicle>
    <vehicle id="34" depart="20.40">
        <route edges="35557161#4 -35557161#4 -35557161#3 -35557161#2 66071366#0 4773029#0 28251222#0 340498982#4"/>
    </vehicle>
    <vehicle id="35" depart="21.00">
        <route edges="68647306#0 -4773029#2 -66071366#2 35557161#0 35557161#3 35557161#4 -23755961#1 389101374#0"/>
    </vehicle>
    <vehicle id="36" depart="21.60">
        <route edges="4611713#1 23017853 -23017852#0 4611710#0 -gneE2 -840229277 196850606#1 196850606#6"/>
    </vehicle>
    <vehicle id="37" depart="22.20">
        <route edges="24913267#0 326116286#0 -874528353#4 gneE1 gneE0 196850606#0 196850606#1 196850606#6 -375459783#1 1073015940"/>
    </vehicle>
    <vehicle id="38" depart="22.80">
        <route edges="-66071366#4 -66071366#2 35557161#0 -35557161#2"/>
    </vehicle>
    <vehicle id="39" depart="23.40">
        <route edges="1073015940 -196850606#8 -196850606#4 -196850606#0 -gneE0 35557143#0"/>
    </vehicle>
    <vehicle id="40" depart="24.00">
        <route edges="-35557161#3 -35557161#2 66071366#0 66071366#3 -66071370 -474362271"/>
    </vehicle>
    <vehicle id="41" depart="24.60">
        <route edges="66071366#0 66071366#3 -66071370"/>
    </vehicle>
    <vehicle id="42" depart="25.20">
        <route edges="-168935757#3 -168935757#2 753316505#0 1110748916 292429056#0 35557143#0 389101365#0 66071366#0 66071366#3 -66071370 -474362271"/>
    </vehicle>
    <vehicle id="43" depart="25.80">
        <route edges="4588220#0 -874528353#4 gneE1 35557143#0 389101365#0 66071366#0 4773029#0"/>
    </vehicle>
    <vehicle id="44" depart="26.40">
        <route edges="66071379#0 474362272 66071370 4611713#0 4611713#1 23017853 -23017852#0 4611710#0"/>
    </vehicle>
    <vehicle id="45" depart="27.00">
        <route edges="66071379#0 474362272 66071370"/>
    </vehicle>
    <vehicle id="46" depart="27.60">
        <route edges="-840229277 196850606#1 196850606#6 665241888#0 -168935757#3"/>
    </vehicle>
    <vehicle id="47" depart="28.20">
        <route edges="-4588222#1 168935757#0 -47755711#2 1073015934"/>
    </vehicle>
    <vehicle id="48" depart="28.80">
        <route edges="1105574289#0 375459782#0 1073015940 -196850606#8 47707170#3 1073015934"/>
    </vehicle>
    <vehicle id="49" depart="29.40">
        <route edges="-4773029#2 66071366#3 4611713#0 4611713#1"/>
    </vehicle>
    <vehicle id="50" depart="30.00">
        <route edges="-35557143#4 35557143#0 389101365#0 -389101365#3"/>
    </vehicle>
    <vehicle id="51" depart="30.60">
        <route edges="47755711#0 -168935757#2 753316505#0 1110748916 292429056#0 35557143#0 389101365#0 66071366#0 66071366#3 -66071370 -474362271"/>
    </vehicle>
    <vehicle id="52" depart="31.20">
        <route edges="-4611706#1 4611706#0 35557161#0 35557161#3"/>
    </vehicle>
    <vehicle id="53" depart="31.80">
        <route edges="-24913267#3 342968607#0 461526152#0 66071373#0 1105574291#0 68647306#0"/>
    </vehicle>
    <vehicle id="54" depart="32.40">
        <route edges="4611713#0 -4611708#2 35557161#3 -gneE2 -840229277 196850606#1 47707171#5"/>
    </vehicle>
    <vehicle id="55" depart="33.00">
        <route edges="66071379#0 474362272 66071370 -66071366#4 -66071366#2 -389101365#3 -35557143#4 -292429056#5"/>
    </vehicle>
    <vehicle id="56" depart="33.60">
        <route edges="4588222#0 -196850606#0 840229275 -840229275"/>
    </vehicle>
    <vehicle id="57" depart="34.20">
        <route edges="326116286#0 -874528353#4 gneE1 35557143#0"/>
    </vehicle>
    <vehicle id="58" depart="34.80">
        <route edges="-326116286#2 -24913267#3 342968607#0 -194069450#2 -882389497 gneE1 -292429056#5 4588220#0"/>
    </vehicle>
    <vehicle id="59" depart="35.40">
        <route edges="-882389497 24242882 gneE3 389101365#0 66071366#0 66071366#3 -66071370 -474362271 474362272"/>
    </vehicle>
    <vehicle id="60" depart="36.00">
        <route edges="326116286#0 -326116286#2 -24913267#3 342968607#0 461526152#0"/>
    </vehicle>
    <vehicle id="61" depart="36.60">
        <route edges="66071379#0 474362272 66071370 -66071366#4 66071366#3"/>
    </vehicle>
    <vehicle id="62" depart="37.20">
        <route edges="22972473#0 22972473#3 gneE2 35557161#4"/>
    </vehicle>
    <vehicle id="63" depart="37.80">
        <route edges="-194069450#2 -882389497 gneE1 gneE0 196850606#0 -196850606#0 -gneE0"/>
    </vehicle>
    <vehicle id="64" depart="38.40">
        <route edges="66071379#0 474362272 66071370 -66071366#4 -66071366#2 35557161#0 -35557161#2"/>
    </vehicle>
    <vehicle id="65" depart="39.00">
        <route edges="-4588222#1 753316505#0 1110748916 292429056#0 35557143#0 -gneE3 1105574291#0 68647306#0"/>
    </vehicle>
    <vehicle id="66" depart="39.60">
        <route edges="35557143#0 22972473#0 22972473#3 22972473#5"/>
    </vehicle>
    <vehicle id="67" depart="40.20">
        <route edges="-gneE1 882389497 194069450#0 -194069450#2 -882389497 gneE1 gneE0 196850606#0 196850606#1 47707170#3"/>
    </vehicle>
    <vehicle id="68" depart="40.80">
        <route edges="66071366#0 66071366#3 4611713#0 4611713#1"/>
    </vehicle>
    <vehicle id="69" depart="41.40">
        <route edges="66071379#0 474362272 -474362271"/>
    </vehicle>
    <vehicle id="70" depart="42.00">
        <route edges="gneE1 35557143#0 389101365#0 66071366#0 66071366#3 -66071370 -474362271"/>
    </vehicle>
    <vehicle id="71" depart="42.60">
        <route edges="-375459782#1 375459782#0 1073015940 -196850606#8 -196850606#4 -196850606#0 -gneE0 -292429056#5 4588220#0 -326116286#2 -24913267#3"/>
    </vehicle>
    <vehicle id="72" depart="43.20">
        <route edges="474362272 66071370 4611713#0 4611713#1 23017853"/>
    </vehicle>
    <vehicle id="73" depart="43.80">
        <route edges="4611713#1 23017853 -23017852#0 4611710#0 -gneE2 22972473#5 1116358457 -24997595#1"/>
    </vehicle>
    <vehicle id="74" depart="44.40">
        <route edges="4773029#0 -4773029#2 -66071366#2 35557161#0 35557161#3 -gneE2 22972473#5 389101373#0"/>
    </vehicle>
    <vehicle id="75" depart="45.00">
        <route edges="4588220#0 -874528353#4 gneE1 gneE0 196850606#0 840229277 -840229277"/>
    </vehicle>
    <vehicle id="76" depart="45.60">
        <route edges="389101365#0 35557161#0 35557161#3 -4611710#2 23017852#0 23017852#1 4611712"/>
    </vehicle>
    <vehicle id="77" depart="46.20">
        <route edges="-4611710#2 23017852#0 -23017853 -4611713#1 -4611713#0 -66071366#4 4773029#0 28251222#0 340498982#4"/>
    </vehicle>
    <vehicle id="78" depart="46.80">
        <route edges="-35557161#4 -35557161#3 -35557161#2 66071366#0 -66071366#2"/>
    </vehicle>
    <vehicle id="79" depart="47.40">
        <route edges="23755961#0 -23755961#1 389101374#0 1116358457 1073015936 -196850606#4 -196850606#0 -gneE0 -292429056#5 4588220#0 -326116286#2 -24913267#3 24913267#0 326116286#0"/>
    </vehicle>
    <vehicle id="80" depart="48.00">
        <route edges="-4773029#2 -66071366#2 -389101365#3 -35557143#4 gneE0 196850606#0 -196850606#0"/>
    </vehicle>
    <vehicle id="81" depart="48.60">
        <route edges="gneE1 gneE0 840229275 -840229275"/>
    </vehicle>
    <vehicle id="82" depart="49.20">
        <route edges="-4773029#2 4773029#0 28251222#0"/>
    </vehicle>
    <vehicle id="83" depart="49.80">
        <route edges="gneE0 196850606#0 -196850606#0 -gneE0 -gneE1 882389497 194069450#0 461526152#0 1079495669#0 340498982#0 340498982#4"/>
    </vehicle>
    <vehicle id="84" depart="50.40">
        <route edges="-4611708#2 -35557161#2 66071366#0 66071366#3 -66071370 -474362271"/>
    </vehicle>
    <vehicle id="85" depart="51.00">
        <route edges="-196850606#0 -gneE0 35557143#0 389101365#0 66071366#0 4773029#0 -4773029#2"/>
    </vehicle>
    <vehicle id="86" depart="51.60">
        <route edges="196850606#0 -196850606#0 -gneE0 -gneE1 882389497 194069450#0 461526152#0 1079495669#0 340498982#0 340498982#4"/>
    </vehicle>
    <vehicle id="87" depart="52.20">
        <route edges="4588220#0 -874528353#4 gneE1 gneE0 196850606#0 840229277 gneE2 35557161#4"/>
    </vehicle>
    <vehicle id="88" depart="52.80">
        <route edges="-4611710#2 23017852#0 23017852#1 -23755961#2"/>
    </vehicle>
    <vehicle id="89" depart="53.40">
        <route edges="-4611712 -23017852#3 -23017853 23017853"/>
    </vehicle>
    <vehicle id="90" depart="54.00">
        <route edges="66071379#0 474362272 66071370 4611713#0 4611713#1 23017853 23017852#1 4611712"/>
    </vehicle>
    <vehicle id="91" depart="54.60">
        <route edges="66071366#3 -66071366#4 -66071366#2 -389101365#3 -35557143#4 -gneE1"/>
    </vehicle>
    <vehicle id="92" depart="55.20">
        <route edges="168935757#0 -168935757#2 753316505#0 1110748916 4588220#0 -326116286#2 -24913267#3 342968607#0 461526152#0 66071373#0"/>
    </vehicle>
    <vehicle id="93" depart="55.80">
        <route edges="-4611713#0 4611713#0 4611713#1 23017853 23017852#1 4611712 -4611712"/>
    </vehicle>
    <vehicle id="94" depart="56.40">
        <route edges="35557143#0 -35557143#4 -gneE1 882389497 194069450#0 461526152#0 1079495669#0 340498982#0"/>
    </vehicle>
    <vehicle id="95" depart="57.00">
        <route edges="23755961#0 -35557161#4 -35557161#3 -35557161#2 -389101365#3 -gneE3 -24242882 gneE1"/>
    </vehicle>
    <vehicle id="96" depart="57.60">
        <route edges="168935757#3 -168935757#3 -168935757#2 753316505#0 1110748916 292429056#0 -gneE1"/>
    </vehicle>
    <vehicle id="97" depart="58.20">
        <route edges="-4611708#2 35557161#3 -4611710#2 23017852#0 23017852#1 4611712"/>
    </vehicle>
    <vehicle id="98" depart="58.80">
        <route edges="47755711#0 -168935757#2 753316505#0 1110748916 292429056#0 35557143#0 389101365#0 66071366#0 4773029#0 -4773029#2"/>
    </vehicle>
    <vehicle id="99" depart="59.40">
        <route edges="292429056#0 35557143#0 389101365#0 66071366#0 66071366#3 -66071370 66071370"/>
    </vehicle>
    <vehicle id="100" depart="60.00">
        <route edges="1073015936 -196850606#4 -196850606#0 -gneE0 35557143#0 389101365#0 66071366#0 66071366#3 -66071370 -474362271"/>
    </vehicle>
    <vehicle id="101" depart="60.60">
        <route edges="-840229275 -gneE0 35557143#0 389101365#0 35557161#0 -35557161#2"/>
    </vehicle>
    <vehicle id="102" depart="61.20">
        <route edges="-194069450#2 -882389497 gneE1 gneE0 196850606#0 840229277 gneE2 -35557161#3"/>
    </vehicle>
    <vehicle id="103" depart="61.80">
        <route edges="22972473#3"/>
    </vehicle>
    <vehicle id="104" depart="62.40">
        <route edges="-gneE1 24242882 gneE3 389101365#0 -4611706#1"/>
    </vehicle>
    <vehicle id="105" depart="63.00">
        <route edges="1105574289#0 375459782#0 1073015940 -196850606#8 -196850606#4 -196850606#0 -gneE0 -gneE1 882389497 194069450#0 -194069450#2 -882389497 gneE1"/>
    </vehicle>
    <vehicle id="106" depart="63.60">
        <route edges="-1105574289#1 -23755961#1 389101374#0 1116358457 1073015936 -196850606#4 -196850606#0 -gneE0 -292429056#5 4588220#0 -326116286#2 -24913267#3 342968607#0"/>
    </vehicle>
    <vehicle id="107" depart="64.20">
        <route edges="-168935757#2 168935757#0 -47755711#2 47755711#0"/>
    </vehicle>
    <vehicle id="108" depart="64.80">
        <route edges="4611713#1 -4611713#1 -4611713#0 -66071366#4 4773029#0 28251222#0 340498982#4"/>
    </vehicle>
    <vehicle id="109" depart="65.40">
        <route edges="389101365#0 35557161#0 35557161#3 35557161#4 1105574289#0 375459782#0 -375459782#1"/>
    </vehicle>
    <vehicle id="110" depart="66.00">
        <route edges="-840229275 196850606#0 196850606#1 47707171#5 -24997595#1 389101373#0 23755961#0 23755961#2"/>
    </vehicle>
    <vehicle id="111" depart="66.60">
        <route edges="24913267#0 326116286#0 -874528353#4 gneE1 gneE0 196850606#0 840229277 gneE2 -4611710#2 23017852#0 23017852#1 -23755961#2"/>
    </vehicle>
    <vehicle id="112" depart="67.20">
        <route edges="-194069450#2 -882389497 gneE1 gneE0 196850606#0 196850606#1 47707170#3"/>
    </vehicle>
    <vehicle id="113" depart="67.80">
        <route edges="4611712 -4611712 -23017852#3 -23017853 -4611713#1 4611713#1"/>
    </vehicle>
    <vehicle id="114" depart="68.40">
        <route edges="68647306#0 -4773029#2 -66071366#2 35557161#0 35557161#3 35557161#4 1105574289#0 375459782#0 22972470#2"/>
    </vehicle>
    <vehicle id="115" depart="69.00">
        <route edges="168935757#3 -168935757#3 -168935757#2 753316505#0 1110748916 292429056#0 -292429056#5"/>
    </vehicle>
    <vehicle id="116" depart="69.60">
        <route edges="43376693#0 375459782#0 1073015940 665241888#0 -168935757#3 -168935757#2 168935757#0"/>
    </vehicle>
    <vehicle id="117" depart="70.20">
        <route edges="66071379#0 474362272 66071370 -66071366#4 -66071366#2 -389101365#3 -35557143#4 gneE0 196850606#0 196850606#1"/>
    </vehicle>
    <vehicle id="118" depart="70.80">
        <route edges="4611706#0 -389101365#3 22972473#0 -840229275 -gneE0"/>
    </vehicle>
    <vehicle id="119" depart="71.40">
        <route edges="-375459782#1 375459782#0 1073015940 -196850606#8 -196850606#4 -196850606#0 -gneE0 -gneE1 882389497 194069450#0 -194069450#2"/>
    </vehicle>
    <vehicle id="120" depart="72.00">
        <route edges="-874528353#4 gneE1 gneE0 196850606#0 840229277 gneE2 -4611710#2 23017852#0 23017852#1"/>
    </vehicle>
    <vehicle id="121" depart="72.60">
        <route edges="24913267#0 326116286#0 -874528353#4 24242882 1105574291#0 68647306#0"/>
    </vehicle>
    <vehicle id="122" depart="73.20">
        <route edges="23755961#2 -23017852#3 -23017853 -4611713#1 -4611713#0 -66071370 -474362271"/>
    </vehicle>
    <vehicle id="123" depart="73.80">
        <route edges="-35557161#2 -389101365#3 -35557143#4 gneE0 196850606#0 196850606#1 196850606#6 -375459783#1"/>
    </vehicle>
    <vehicle id="124" depart="74.40">
        <route edges="23755961#0 -23755961#1 389101374#0 1116358457 1073015936 -196850606#4 -196850606#0 -gneE0 -gneE1 882389497"/>
    </vehicle>
    <vehicle id="125" depart="75.00">
        <route edges="-874528353#4 gneE1 gneE0 196850606#0 840229277"/>
    </vehicle>
    <vehicle id="126" depart="75.60">
        <route edges="24913267#0 326116286#0 -874528353#4 gneE1 gneE0 196850606#0 196850606#1 47707170#3 1073015934"/>
    </vehicle>
    <vehicle id="127" depart="76.20">
        <route edges="24242882 gneE3 389101365#0 66071366#0 66071366#3 4611713#0"/>
    </vehicle>
    <vehicle id="128" depart="76.80">
        <route edges="-196850606#0 -gneE0 -gneE1 882389497 194069450#0 461526152#0 66071373#0"/>
    </vehicle>
    <vehicle id="129" depart="77.40">
        <route edges="-24997595#1 389101373#0 23755961#0 23755961#2 -23017852#3 -23017853"/>
    </vehicle>
    <vehicle id="130" depart="78.00">
        <route edges="gneE0 196850606#0 196850606#1 196850606#6 -375459783#1 -375459782#1 375459782#0"/>
    </vehicle>
    <vehicle id="131" depart="78.60">
        <route edges="840229277 gneE2 -35557161#3 -35557161#2 -4611706#1 -1105574291#2"/>
    </vehicle>
    <vehicle id="132" depart="79.20">
        <route edges="-24913267#3 342968607#0 -194069450#2 -882389497 gneE1 gneE0 196850606#0 196850606#1 196850606#6 -375459783#1 -375459782#1 -43376693#2 43376693#0"/>
    </vehicle>
    <vehicle id="133" depart="79.80">
        <route edges="-66071370 66071370 -66071366#4 -66071366#2 35557161#0 35557161#3 -35557161#3"/>
    </vehicle>
    <vehicle id="134" depart="80.40">
        <route edges="47707171#5 1073015936 -196850606#4 -196850606#0 -gneE0 35557143#0 389101365#0 66071366#0 66071366#3 -66071370 -474362271"/>
    </vehicle>
    <vehicle id="135" depart="81.00">
        <route edges="-1105574289#1 -23755961#1 389101374#0 1116358457 1073015936 196850606#6 665241888#0 -665241888#1"/>
    </vehicle>
    <vehicle id="136" depart="81.60">
        <route edges="-326116286#2 -24913267#3 342968607#0 -194069450#2 -882389497 gneE1 35557143#0"/>
    </vehicle>
    <vehicle id="137" depart="82.20">
        <route edges="4588217 -874528353#4 gneE1 35557143#0 389101365#0 66071366#0 66071366#3 4611713#0 4611713#1 23017853"/>
    </vehicle>
    <vehicle id="138" depart="82.80">
        <route edges="1116358457 1073015936 -196850606#4 -196850606#0 -gneE0 -gneE1"/>
    </vehicle>
    <vehicle id="139" depart="83.40">
        <route edges="375459782#0 -375459782#1 -43376693#2 43376693#0"/>
    </vehicle>
    <vehicle id="140" depart="84.00">
        <route edges="292429056#0 gneE0 196850606#0 196850606#1 47707170#3 47755711#0"/>
    </vehicle>
    <vehicle id="141" depart="84.60">
        <route edges="326116286#0 -874528353#4 gneE1 gneE0 196850606#0 196850606#1 47707170#3 1073015934"/>
    </vehicle>
    <vehicle id="142" depart="85.20">
        <route edges="4611706#0 -389101365#3 -35557143#4 gneE0 196850606#0 -4588222#1 4588222#0"/>
    </vehicle>
    <vehicle id="143" depart="85.80">
        <route edges="-28251222#2 -4773029#2 66071366#3 -66071370 -474362271"/>
    </vehicle>
    <vehicle id="144" depart="86.40">
        <route edges="4588219#0 -gneE0 35557143#0 389101365#0 66071366#0 4773029#0 28251222#0"/>
    </vehicle>
    <vehicle id="145" depart="87.00">
        <route edges="35557161#3 -4611710#2"/>
    </vehicle>
    <vehicle id="146" depart="87.60">
        <route edges="1073015940 665241888#0 -168935757#3 -47755711#2"/>
    </vehicle>
    <vehicle id="147" depart="88.20">
        <route edges="66071379#0 474362272 66071370 -66071366#4 4773029#0 28251222#0 340498982#4"/>
    </vehicle>
    <vehicle id="148" depart="88.80">
        <route edges="gneE2 35557161#4 -23755961#1 389101374#0 1116358457 1073015936 -196850606#4 -196850606#0 -4588219#2 4588219#0"/>
    </vehicle>
    <vehicle id="149" depart="89.40">
        <route edges="-375459782#1 375459782#0 1073015940 665241888#0 -168935757#3"/>
    </vehicle>
    <vehicle id="150" depart="90.00">
        <route edges="389101373#0 23755961#0 -23755961#1 389101374#0 1116358457 1073015936 196850606#6 -196850606#8"/>
    </vehicle>
    <vehicle id="151" depart="90.60">
        <route edges="24913267#0 326116286#0 -874528353#4 gneE1 gneE0 196850606#0 196850606#1 47707170#3 47755711#0"/>
    </vehicle>
    <vehicle id="152" depart="91.20">
        <route edges="-196850606#8 -196850606#4 -196850606#0 -4588219#2"/>
    </vehicle>
    <vehicle id="153" depart="91.80">
        <route edges="66071373#0 gneE3 22972473#0 22972473#3 gneE2 35557161#4 -23755961#1 389101374#0"/>
    </vehicle>
    <vehicle id="154" depart="92.40">
        <route edges="-194069450#2 -882389497 4588217 -874528353#4"/>
    </vehicle>
    <vehicle id="155" depart="93.00">
        <route edges="4611712 -4611712 -23017852#3 -23017853 -4611713#1 -4611713#0 -66071370 -474362271 474362272"/>
    </vehicle>
    <vehicle id="156" depart="93.60">
        <route edges="-375459783#1 1073015940 -196850606#8 -196850606#4 -196850606#0 196850606#0"/>
    </vehicle>
    <vehicle id="157" depart="94.20">
        <route edges="35557161#3 -4611710#2 23017852#0 23017852#1 -23755961#2"/>
    </vehicle>
    <vehicle id="158" depart="94.80">
        <route edges="24913267#0 326116286#0 -874528353#4 gneE1 35557143#0 389101365#0 66071366#0 66071366#3 -66071370"/>
    </vehicle>
    <vehicle id="159" depart="95.40">
        <route edges="326116286#0 -874528353#4 gneE1 35557143#0 -35557143#4"/>
    </vehicle>
    <vehicle id="160" depart="96.00">
        <route edges="gneE0 196850606#0 -196850606#0 -gneE0 -gneE1"/>
    </vehicle>
    <vehicle id="161" depart="96.60">
        <route edges="882389497 194069450#0 -194069450#2 -882389497 24242882 gneE3 389101365#0 66071366#0 66071366#3 -66071370 -474362271"/>
    </vehicle>
    <vehicle id="162" depart="97.20">
        <route edges="66071379#0 474362272 66071370 -66071366#4 -66071366#2 -389101365#3 -35557143#4 35557143#0"/>
    </vehicle>
    <vehicle id="163" depart="97.80">
        <route edges="35557161#0 -35557161#2 -389101365#3 -gneE3 -24242882 882389497 194069450#0 461526152#0"/>
    </vehicle>
    <vehicle id="164" depart="98.40">
        <route edges="4611712 43376693#0 375459782#0 1073015940 -196850606#8 -196850606#4 -196850606#0 -gneE0 -gneE1 4588217"/>
    </vehicle>
    <vehicle id="165" depart="99.00">
        <route edges="-24913267#3 342968607#0 -194069450#2 -882389497 24242882 gneE3 -35557143#4 -gneE1"/>
    </vehicle>
    <vehicle id="166" depart="99.60">
        <route edges="gneE0 196850606#0 -196850606#0 -gneE0 35557143#0 389101365#0 66071366#0 66071366#3 -66071370 -474362271 474362272"/>
    </vehicle>
    <vehicle id="167" depart="100.20">
        <route edges="840229277 -840229277 196850606#1 47707170#3 47755711#0"/>
    </vehicle>
    <vehicle id="168" depart="100.80">
        <route edges="-168935757#2 753316505#0 1110748916 4588220#0 -874528353#4 gneE1"/>
    </vehicle>
    <vehicle id="169" depart="101.40">
        <route edges="47755711#0 -168935757#2 753316505#0 1110748916 292429056#0 35557143#0 389101365#0 66071366#0 66071366#3 -66071370 -474362271"/>
    </vehicle>
    <vehicle id="170" depart="102.00">
        <route edges="-4773029#2 4773029#0 28251222#0 -28251222#2"/>
    </vehicle>
    <vehicle id="171" depart="102.60">
        <route edges="-4588219#2 4588219#0 196850606#0 196850606#1 -196850606#4"/>
    </vehicle>
    <vehicle id="172" depart="103.20">
        <route edges="-389101365#3 -35557143#4 35557143#0"/>
    </vehicle>
    <vehicle id="173" depart="103.80">
        <route edges="-66071366#4 -66071366#2 -389101365#3 -35557143#4 -292429056#5 4588220#0 -326116286#2 -24913267#3"/>
    </vehicle>
    <vehicle id="174" depart="104.40">
        <route edges="292429056#0 gneE0 196850606#0 840229277 gneE2 -4611710#2 23017852#0 23017852#1 -23017852#3"/>
    </vehicle>
    <vehicle id="175" depart="105.00">
        <route edges="840229275 22972473#3"/>
    </vehicle>
    <vehicle id="176" depart="105.60">
        <route edges="4611713#0 -4611713#0 -66071370 -474362271"/>
    </vehicle>
    <vehicle id="177" depart="106.20">
        <route edges="326116286#0 -874528353#4 gneE1 gneE0 196850606#0 840229277 gneE2 -4611710#2 23017852#0 -23017852#0"/>
    </vehicle>
    <vehicle id="178" depart="106.80">
        <route edges="-4611713#0 -66071366#4 -66071366#2 35557161#0 35557161#3 -gneE2 -840229277"/>
    </vehicle>
    <vehicle id="179" depart="107.40">
        <route edges="-4588222#1 4588222#0 196850606#1 196850606#6 665241888#0"/>
    </vehicle>
    <vehicle id="180" depart="108.00">
        <route edges="-840229275 -gneE0 35557143#0 389101365#0 66071366#0 66071366#3 -66071370"/>
    </vehicle>
    <vehicle id="181" depart="108.60">
        <route edges="-4773029#2 66071366#3 4611713#0 4611713#1 23017853 23017852#1 -23017852#3"/>
    </vehicle>
    <vehicle id="182" depart="109.20">
        <route edges="-gneE3 1105574291#0 4611706#0 35557161#0 35557161#3 -35557161#3"/>
    </vehicle>
    <vehicle id="183" depart="109.80">
        <route edges="375459782#0 22972470#2 389101373#0 23755961#0 -35557161#4 -35557161#3 -35557161#2 66071366#0 66071366#3 -66071370 66071370"/>
    </vehicle>
    <vehicle id="184" depart="110.40">
        <route edges="66071379#0 474362272 66071370 -66071366#4 -66071366#2 -389101365#3 22972473#0 -840229275"/>
    </vehicle>
    <vehicle id="185" depart="111.00">
        <route edges="-389101365#3 389101365#0 66071366#0 66071366#3 -66071370 -474362271"/>
    </vehicle>
    <vehicle id="186" depart="111.60">
        <route edges="-4611708#2 -35557161#2 66071366#0 66071366#3 -66071370 -474362271"/>
    </vehicle>
    <vehicle id="187" depart="112.20">
        <route edges="-4611706#1 -1105574291#2 -24242882 882389497 194069450#0 461526152#0"/>
    </vehicle>
    <vehicle id="188" depart="112.80">
        <route edges="24913267#0 326116286#0 -874528353#4 gneE1 gneE0 196850606#0 196850606#1 196850606#6 -375459783#1 1073015940"/>
    </vehicle>
    <vehicle id="189" depart="113.40">
        <route edges="23755961#2 -23017852#3 -23017852#0 4611710#0 -gneE2 -840229277 -196850606#0 -gneE0 -292429056#5 4588220#0 -326116286#2 -24913267#3 24913267#0 326116286#0"/>
    </vehicle>