<?xml version="1.0" encoding="UTF-8"?>
<!-- generated on 2023-03-06 20:29:46.653525 by $Id$ v1_8_0+0047-aa6aca8053
  options: -e 500 -n berlin.net.xml <doubleminus>random <doubleminus>fringe-factor 9.0 -p 0.6 -r berlin.rou.xml
-->
<routes xmlns:xsi="http://www.w3.org/2001/XMLSchema-instance" xsi:noNamespaceSchemaLocation="http://sumo.dlr.de/xsd/routes_file.xsd">
    <trip id="0" depart="0.00" from="4588220#0" to="196850606#6"/>
    <trip id="1" depart="0.60" from="24913267#0" to="-35557161#4"/>
    <trip id="2" depart="1.20" from="66071379#0" to="-24913267#3"/>
    <trip id="3" depart="1.80" from="66071379#0" to="-474362271"/>
    <trip id="4" depart="2.40" from="24913267#0" to="4611706#0"/>
    <trip id="5" depart="3.00" from="196850606#6" to="-23755961#1"/>
    <trip id="6" depart="3.60" from="4611713#0" to="1079495669#0"/>
    <trip id="7" depart="4.20" from="-1105574289#1" to="4611712"/>
    <trip id="8" depart="4.80" from="-23017852#0" to="168935757#0"/>
    <trip id="9" depart="5.40" from="66071379#0" to="-28251222#2"/>
    <trip id="10" depart="6.00" from="-35557161#3" to="-474362271"/>
    <trip id="11" depart="6.60" from="753316505#0" to="66071373#0"/>
    <trip id="12" depart="7.20" from="47707170#3" to="-375459783#1"/>
    <trip id="13" depart="7.80" from="4611710#0" to="47755711#0"/>
    <trip id="14" depart="8.40" from="-4611710#2" to="882389497"/>
    <trip id="15" depart="9.00" from="-23017852#3" to="-474362271"/>
    <trip id="16" depart="9.60" from="-gneE1" to="194069450#0"/>
    <trip id="17" depart="10.20" from="168935757#0" to="4588222#0"/>
    <trip id="18" depart="10.80" from="35557161#3" to="340498982#4"/>
    <trip id="19" depart="11.40" from="-23017852#0" to="-24997595#1"/>
    <trip id="20" depart="12.00" from="28251222#0" to="22972473#5"/>
    <trip id="21" depart="12.60" from="1105574291#0" to="-35557161#2"/>
    <trip id="22" depart="13.20" from="-196850606#8" to="23017853"/>
    <trip id="23" depart="13.80" from="168935757#3" to="4773029#0"/>
    <trip id="24" depart="14.40" from="22972473#0" to="-28251222#2"/>
    <trip id="25" depart="15.00" from="1116358457" to="340498982#4"/>
    <trip id="26" depart="15.60" from="-28251222#2" to="-66071366#2"/>
    <trip id="27" depart="16.20" from="461526152#0" to="389101365#0"/>
    <trip id="28" depart="16.80" from="-66071370" to="-474362271"/>
    <trip id="29" depart="17.40" from="66071379#0" to="1105574289#0"/>
    <trip id="30" depart="18.00" from="-gneE3" to="66071366#0"/>
    <trip id="31" depart="18.60" from="1110748916" to="753316505#0"/>
    <trip id="32" depart="19.20" from="4588219#0" to="-882389497"/>
    <trip id="33" depart="19.80" from="-43376693#2" to="-23755961#2"/>
    <trip id="34" depart="20.40" from="35557161#4" to="340498982#4"/>
    <trip id="35" depart="21.00" from="68647306#0" to="389101374#0"/>
    <trip id="36" depart="21.60" from="4611713#1" to="196850606#6"/>
    <trip id="37" depart="22.20" from="24913267#0" to="1073015940"/>
    <trip id="38" depart="22.80" from="-66071366#4" to="-35557161#2"/>
    <trip id="39" depart="23.40" from="1073015940" to="35557143#0"/>
    <trip id="40" depart="24.00" from="-35557161#3" to="-474362271"/>
    <trip id="41" depart="24.60" from="66071366#0" to="-66071370"/>
    <trip id="42" depart="25.20" from="-168935757#3" to="-474362271"/>
    <trip id="43" depart="25.80" from="4588220#0" to="4773029#0"/>
    <trip id="44" depart="26.40" from="66071379#0" to="4611710#0"/>
    <trip id="45" depart="27.00" from="66071379#0" to="66071370"/>
    <trip id="46" depart="27.60" from="-840229277" to="-168935757#3"/>
    <trip id="47" depart="28.20" from="-4588222#1" to="1073015934"/>
    <trip id="48" depart="28.80" from="1105574289#0" to="1073015934"/>
    <trip id="49" depart="29.40" from="-4773029#2" to="4611713#1"/>
    <trip id="50" depart="30.00" from="-35557143#4" to="-389101365#3"/>
    <trip id="51" depart="30.60" from="47755711#0" to="-474362271"/>
    <trip id="52" depart="31.20" from="-4611706#1" to="35557161#3"/>
    <trip id="53" depart="31.80" from="-24913267#3" to="68647306#0"/>
    <trip id="54" depart="32.40" from="4611713#0" to="47707171#5"/>
    <trip id="55" depart="33.00" from="66071379#0" to="-292429056#5"/>
    <trip id="56" depart="33.60" from="4588222#0" to="-840229275"/>
    <trip id="57" depart="34.20" from="326116286#0" to="35557143#0"/>
    <trip id="58" depart="34.80" from="-326116286#2" to="4588220#0"/>
    <trip id="59" depart="35.40" from="-882389497" to="474362272"/>
    <trip id="60" depart="36.00" from="326116286#0" to="461526152#0"/>
    <trip id="61" depart="36.60" from="66071379#0" to="66071366#3"/>
    <trip id="62" depart="37.20" from="22972473#0" to="35557161#4"/>
    <trip id="63" depart="37.80" from="-194069450#2" to="-gneE0"/>
    <trip id="64" depart="38.40" from="66071379#0" to="-35557161#2"/>
    <trip id="65" depart="39.00" from="-4588222#1" to="68647306#0"/>
    <trip id="66" depart="39.60" from="35557143#0" to="22972473#5"/>
    <trip id="67" depart="40.20" from="-gneE1" to="47707170#3"/>
    <trip id="68" depart="40.80" from="66071366#0" to="4611713#1"/>
    <trip id="69" depart="41.40" from="66071379#0" to="-474362271"/>
    <trip id="70" depart="42.00" from="gneE1" to="-474362271"/>
    <trip id="71" depart="42.60" from="-375459782#1" to="-24913267#3"/>
    <trip id="72" depart="43.20" from="474362272" to="23017853"/>
    <trip id="73" depart="43.80" from="4611713#1" to="-24997595#1"/>
    <trip id="74" depart="44.40" from="4773029#0" to="389101373#0"/>
    <trip id="75" depart="45.00" from="4588220#0" to="-840229277"/>
    <trip id="76" depart="45.60" from="389101365#0" to="4611712"/>
    <trip id="77" depart="46.20" from="-4611710#2" to="340498982#4"/>
    <trip id="78" depart="46.80" from="-35557161#4" to="-66071366#2"/>
    <trip id="79" depart="47.40" from="23755961#0" to="326116286#0"/>
    <trip id="80" depart="48.00" from="-4773029#2" to="-196850606#0"/>
    <trip id="81" depart="48.60" from="gneE1" to="-840229275"/>
    <trip id="82" depart="49.20" from="-4773029#2" to="28251222#0"/>
    <trip id="83" depart="49.80" from="gneE0" to="340498982#4"/>
    <trip id="84" depart="50.40" from="-4611708#2" to="-474362271"/>
    <trip id="85" depart="51.00" from="-196850606#0" to="-4773029#2"/>
    <trip id="86" depart="51.60" from="196850606#0" to="340498982#4"/>
    <trip id="87" depart="52.20" from="4588220#0" to="35557161#4"/>
    <trip id="88" depart="52.80" from="-4611710#2" to="-23755961#2"/>
    <trip id="89" depart="53.40" from="-4611712" to="23017853"/>
    <trip id="90" depart="54.00" from="66071379#0" to="4611712"/>
    <trip id="91" depart="54.60" from="66071366#3" to="-gneE1"/>
    <trip id="92" depart="55.20" from="168935757#0" to="66071373#0"/>
    <trip id="93" depart="55.80" from="-4611713#0" to="-4611712"/>
    <trip id="94" depart="56.40" from="35557143#0" to="340498982#0"/>
    <trip id="95" depart="57.00" from="23755961#0" to="gneE1"/>
    <trip id="96" depart="57.60" from="168935757#3" to="-gneE1"/>
    <trip id="97" depart="58.20" from="-4611708#2" to="4611712"/>
    <trip id="98" depart="58.80" from="47755711#0" to="-4773029#2"/>
    <trip id="99" depart="59.40" from="292429056#0" to="66071370"/>
    <trip id="100" depart="60.00" from="1073015936" to="-474362271"/>
    <trip id="101" depart="60.60" from="-840229275" to="-35557161#2"/>
    <trip id="102" depart="61.20" from="-194069450#2" to="-35557161#3"/>
    <trip id="103" depart="61.80" from="22972473#3" to="22972473#3"/>
    <trip id="104" depart="62.40" from="-gneE1" to="-4611706#1"/>
    <trip id="105" depart="63.00" from="1105574289#0" to="gneE1"/>
    <trip id="106" depart="63.60" from="-1105574289#1" to="342968607#0"/>
    <trip id="107" depart="64.20" from="-168935757#2" to="47755711#0"/>
    <trip id="108" depart="64.80" from="4611713#1" to="340498982#4"/>
    <trip id="109" depart="65.40" from="389101365#0" to="-375459782#1"/>
    <trip id="110" depart="66.00" from="-840229275" to="23755961#2"/>
    <trip id="111" depart="66.60" from="24913267#0" to="-23755961#2"/>
    <trip id="112" depart="67.20" from="-194069450#2" to="47707170#3"/>
    <trip id="113" depart="67.80" from="4611712" to="4611713#1"/>
    <trip id="114" depart="68.40" from="68647306#0" to="22972470#2"/>
    <trip id="115" depart="69.00" from="168935757#3" to="-292429056#5"/>
    <trip id="116" depart="69.60" from="43376693#0" to="168935757#0"/>
    <trip id="117" depart="70.20" from="66071379#0" to="196850606#1"/>
    <trip id="118" depart="70.80" from="4611706#0" to="-gneE0"/>
    <trip id="119" depart="71.40" from="-375459782#1" to="-194069450#2"/>
    <trip id="120" depart="72.00" from="-874528353#4" to="23017852#1"/>
    <trip id="121" depart="72.60" from="24913267#0" to="68647306#0"/>
    <trip id="122" depart="73.20" from="23755961#2" to="-474362271"/>
    <trip id="123" depart="73.80" from="-35557161#2" to="-375459783#1"/>
    <trip id="124" depart="74.40" from="23755961#0" to="882389497"/>
    <trip id="125" depart="75.00" from="-874528353#4" to="840229277"/>
    <trip id="126" depart="75.60" from="24913267#0" to="1073015934"/>
    <trip id="127" depart="76.20" from="24242882" to="4611713#0"/>
    <trip id="128" depart="76.80" from="-196850606#0" to="66071373#0"/>
    <trip id="129" depart="77.40" from="-24997595#1" to="-23017853"/>
    <trip id="130" depart="78.00" from="gneE0" to="375459782#0"/>
    <trip id="131" depart="78.60" from="840229277" to="-1105574291#2"/>
    <trip id="132" depart="79.20" from="-24913267#3" to="43376693#0"/>
    <trip id="133" depart="79.80" from="-66071370" to="-35557161#3"/>
    <trip id="134" depart="80.40" from="47707171#5" to="-474362271"/>
    <trip id="135" depart="81.00" from="-1105574289#1" to="-665241888#1"/>
    <trip id="136" depart="81.60" from="-326116286#2" to="35557143#0"/>
    <trip id="137" depart="82.20" from="4588217" to="23017853"/>
    <trip id="138" depart="82.80" from="1116358457" to="-gneE1"/>
    <trip id="139" depart="83.40" from="375459782#0" to="43376693#0"/>
    <trip id="140" depart="84.00" from="292429056#0" to="47755711#0"/>
    <trip id="141" depart="84.60" from="326116286#0" to="1073015934"/>
    <trip id="142" depart="85.20" from="4611706#0" to="4588222#0"/>
    <trip id="143" depart="85.80" from="-28251222#2" to="-474362271"/>
    <trip id="144" depart="86.40" from="4588219#0" to="28251222#0"/>
    <trip id="145" depart="87.00" from="35557161#3" to="-4611710#2"/>
    <trip id="146" depart="87.60" from="1073015940" to="-47755711#2"/>
    <trip id="147" depart="88.20" from="66071379#0" to="340498982#4"/>
    <trip id="148" depart="88.80" from="gneE2" to="4588219#0"/>
    <trip id="149" depart="89.40" from="-375459782#1" to="-168935757#3"/>
    <trip id="150" depart="90.00" from="389101373#0" to="-196850606#8"/>
    <trip id="151" depart="90.60" from="24913267#0" to="47755711#0"/>
    <trip id="152" depart="91.20" from="-196850606#8" to="-4588219#2"/>
    <trip id="153" depart="91.80" from="66071373#0" to="389101374#0"/>
    <trip id="154" depart="92.40" from="-194069450#2" to="-874528353#4"/>
    <trip id="155" depart="93.00" from="4611712" to="474362272"/>
    <trip id="156" depart="93.60" from="-375459783#1" to="196850606#0"/>
    <trip id="157" depart="94.20" from="35557161#3" to="-23755961#2"/>
    <trip id="158" depart="94.80" from="24913267#0" to="-66071370"/>
    <trip id="159" depart="95.40" from="326116286#0" to="-35557143#4"/>
    <trip id="160" depart="96.00" from="gneE0" to="-gneE1"/>
    <trip id="161" depart="96.60" from="882389497" to="-474362271"/>
    <trip id="162" depart="97.20" from="66071379#0" to="35557143#0"/>
    <trip id="163" depart="97.80" from="35557161#0" to="461526152#0"/>
    <trip id="164" depart="98.40" from="4611712" to="4588217"/>
    <trip id="165" depart="99.00" from="-24913267#3" to="-gneE1"/>
    <trip id="166" depart="99.60" from="gneE0" to="474362272"/>
    <trip id="167" depart="100.20" from="840229277" to="47755711#0"/>
    <trip id="168" depart="100.80" from="-168935757#2" to="gneE1"/>
    <trip id="169" depart="101.40" from="47755711#0" to="-474362271"/>
    <trip id="170" depart="102.00" from="-4773029#2" to="-28251222#2"/>
    <trip id="171" depart="102.60" from="-4588219#2" to="-196850606#4"/>
    <trip id="172" depart="103.20" from="-389101365#3" to="35557143#0"/>
    <trip id="173" depart="103.80" from="-66071366#4" to="-24913267#3"/>
    <trip id="174" depart="104.40" from="292429056#0" to="-23017852#3"/>
    <trip id="175" depart="105.00" from="840229275" to="22972473#3"/>
    <trip id="176" depart="105.60" from="4611713#0" to="-474362271"/>
    <trip id="177" depart="106.20" from="326116286#0" to="-23017852#0"/>
    <trip id="178" depart="106.80" from="-4611713#0" to="-840229277"/>
    <trip id="179" depart="107.40" from="-4588222#1" to="665241888#0"/>
    <trip id="180" depart="108.00" from="-840229275" to="-66071370"/>
    <trip id="181" depart="108.60" from="-4773029#2" to="-23017852#3"/>
    <trip id="182" depart="109.20" from="-gneE3" to="-35557161#3"/>
    <trip id="183" depart="109.80" from="375459782#0" to="66071370"/>
    <trip id="184" depart="110.40" from="66071379#0" to="-840229275"/>
    <trip id="185" depart="111.00" from="-389101365#3" to="-474362271"/>
    <trip id="186" depart="111.60" from="-4611708#2" to="-474362271"/>
    <trip id="187" depart="112.20" from="-4611706#1" to="461526152#0"/>
    <trip id="188" depart="112.80" from="24913267#0" to="1073015940"/>
    <trip id="189" depart="113.40" from="23755961#2" to="326116286#0"/>
    <trip id="190" depart="114.00" from="23017853" to="28251222#0"/>
    <trip id="191" depart="114.60" from="196850606#6" to="-874528353#4"/>
    <trip id="192" depart="115.20" from="66071366#3" to="1073015934"/>
    <trip id="193" depart="115.80" from="-gneE0" to="47707171#5"/>
    <trip id="194" depart="116.40" from="4611713#0" to="-196850606#0"/>
    <trip id="195" depart="117.00" from="24913267#0" to="66071373#0"/>
    <trip id="196" depart="117.60" from="gneE1" to="-292429056#5"/>
    <trip id="197" depart="118.20" from="43376693#0" to="-gneE2"/>
    <trip id="198" depart="118.80" from="43376693#0" to="23017853"/>
    <trip id="199" depart="119.40" from="35557161#0" to="-196850606#0"/>
    <trip id="200" depart="120.00" from="1073015936" to="-389101365#3"/>
    <trip id="201" depart="120.60" from="66071373#0" to="-66071366#4"/>
    <trip id="202" depart="121.20" from="-1105574289#1" to="840229277"/>
    <trip id="203" depart="121.80" from="4588217" to="-194069450#2"/>
    <trip id="204" depart="122.40" from="22972473#3" to="4611710#0"/>
    <trip id="205" depart="123.00" from="-375459783#1" to="4588220#0"/>
    <trip id="206" depart="123.60" from="1079495669#0" to="461526152#0"/>
    <trip id="207" depart="124.20" from="1105574289#0" to="35557161#3"/>
    <trip id="208" depart="124.80" from="326116286#0" to="22972473#5"/>
    <trip id="209" depart="125.40" from="-66071370" to="168935757#0"/>
    <trip id="210" depart="126.00" from="-4611706#1" to="22972473#5"/>
    <trip id="211" depart="126.60" from="1073015934" to="23017853"/>
    <trip id="212" depart="127.20" from="35557161#0" to="23017853"/>
    <trip id="213" depart="127.80" from="66071379#0" to="-474362271"/>
    <trip id="214" depart="128.40" from="389101374#0" to="194069450#0"/>
    <trip id="215" depart="129.00" from="35557161#4" to="375459782#0"/>
    <trip id="216" depart="129.60" from="-840229275" to="-28251222#2"/>
    <trip id="217" depart="130.20" from="66071379#0" to="-gneE3"/>
    <trip id="218" depart="130.80" from="-24242882" to="gneE3"/>
    <trip id="219" depart="131.40" from="168935757#0" to="-23017852#0"/>
    <trip id="220" depart="132.00" from="340498982#0" to="375459782#0"/>
    <trip id="221" depart="132.60" from="66071373#0" to="-389101365#3"/>
    <trip id="222" depart="133.20" from="389101373#0" to="gneE1"/>
    <trip id="223" depart="133.80" from="66071379#0" to="-4611706#1"/>
    <trip id="224" depart="134.40" from="1073015940" to="-23017852#3"/>
    <trip id="225" depart="135.00" from="1105574291#0" to="-874528353#4"/>
    <trip id="226" depart="135.60" from="-4611712" to="292429056#0"/>
    <trip id="227" depart="136.20" from="66071373#0" to="68647306#0"/>
    <trip id="228" depart="136.80" from="-66071370" to="340498982#4"/>
    <trip id="229" depart="137.40" from="4773029#0" to="-874528353#4"/>
    <trip id="230" depart="138.00" from="22972470#2" to="-4773029#2"/>
    <trip id="231" depart="138.60" from="-28251222#2" to="23755961#2"/>
    <trip id="232" depart="139.20" from="66071379#0" to="-23755961#2"/>
    <trip id="233" depart="139.80" from="-375459782#1" to="23017852#0"/>
    <trip id="234" depart="140.40" from="gneE3" to="-23755961#2"/>
    <trip id="235" depart="141.00" from="66071379#0" to="-474362271"/>
    <trip id="236" depart="141.60" from="-4611706#1" to="22972473#3"/>
    <trip id="237" depart="142.20" from="-168935757#3" to="-gneE3"/>
    <trip id="238" depart="142.80" from="66071379#0" to="-665241888#1"/>
    <trip id="239" depart="143.40" from="35557161#4" to="-389101365#3"/>
    <trip id="240" depart="144.00" from="-35557143#4" to="840229277"/>
    <trip id="241" depart="144.60" from="-4611706#1" to="4611710#0"/>
    <trip id="242" depart="145.20" from="gneE0" to="168935757#3"/>
    <trip id="243" depart="145.80" from="-4611706#1" to="22972473#0"/>
    <trip id="244" depart="146.40" from="24242882" to="-gneE0"/>
    <trip id="245" depart="147.00" from="-840229277" to="340498982#4"/>
    <trip id="246" depart="147.60" from="4611710#0" to="-292429056#5"/>
    <trip id="247" depart="148.20" from="28251222#0" to="-474362271"/>
    <trip id="248" depart="148.80" from="35557143#0" to="340498982#4"/>
    <trip id="249" depart="149.40" from="-194069450#2" to="340498982#4"/>
    <trip id="250" depart="150.00" from="24913267#0" to="22972473#5"/>
    <trip id="251" depart="150.60" from="-168935757#3" to="-882389497"/>
    <trip id="252" depart="151.20" from="4588220#0" to="-4773029#2"/>
    <trip id="253" depart="151.80" from="-4611713#0" to="4611706#0"/>
    <trip id="254" depart="152.40" from="-168935757#2" to="43376693#0"/>
    <trip id="255" depart="153.00" from="4588220#0" to="-882389497"/>
    <trip id="256" depart="153.60" from="-47755711#2" to="882389497"/>
    <trip id="257" depart="154.20" from="24913267#0" to="28251222#0"/>
    <trip id="258" depart="154.80" from="4611712" to="47707170#3"/>
    <trip id="259" depart="155.40" from="342968607#0" to="24242882"/>
    <trip id="260" depart="156.00" from="-1105574291#2" to="196850606#1"/>
    <trip id="261" depart="156.60" from="-196850606#0" to="-196850606#4"/>
    <trip id="262" depart="157.20" from="196850606#0" to="-375459782#1"/>
    <trip id="263" depart="157.80" from="-35557161#3" to="-35557161#3"/>
    <trip id="264" depart="158.40" from="389101374#0" to="326116286#0"/>
    <trip id="265" depart="159.00" from="-196850606#0" to="66071366#3"/>
    <trip id="266" depart="159.60" from="4611713#1" to="1105574291#0"/>
    <trip id="267" depart="160.20" from="66071379#0" to="4588222#0"/>
    <trip id="268" depart="160.80" from="-168935757#2" to="-23017853"/>
    <trip id="269" depart="161.40" from="1110748916" to="-196850606#0"/>
    <trip id="270" depart="162.00" from="389101374#0" to="292429056#0"/>
    <trip id="271" depart="162.60" from="168935757#0" to="326116286#0"/>
    <trip id="272" depart="163.20" from="-389101365#3" to="1116358457"/>
    <trip id="273" depart="163.80" from="66071379#0" to="1073015936"/>
    <trip id="274" depart="164.40" from="24913267#0" to="-35557161#4"/>
    <trip id="275" depart="165.00" from="68647306#0" to="4588219#0"/>
    <trip id="276" depart="165.60" from="-47755711#2" to="753316505#0"/>
    <trip id="277" depart="166.20" from="-882389497" to="196850606#6"/>
    <trip id="278" depart="166.80" from="-23017852#0" to="753316505#0"/>
    <trip id="279" depart="167.40" from="-gneE3" to="22972470#2"/>
    <trip id="280" depart="168.00" from="-665241888#1" to="-gneE2"/>
    <trip id="281" depart="168.60" from="340498982#0" to="340498982#0"/>
    <trip id="282" depart="169.20" from="389101373#0" to="-840229275"/>
    <trip id="283" depart="169.80" from="-196850606#8" to="47707171#5"/>
    <trip id="284" depart="170.40" from="375459782#0" to="292429056#0"/>
    <trip id="285" depart="171.00" from="4588219#0" to="35557143#0"/>
    <trip id="286" depart="171.60" from="168935757#3" to="-4611706#1"/>
    <trip id="287" depart="172.20" from="-1105574291#2" to="-gneE3"/>
    <trip id="288" depart="172.80" from="47755711#0" to="4611713#0"/>
    <trip id="289" depart="173.40" from="194069450#0" to="47707171#5"/>
    <trip id="290" depart="174.00" from="66071379#0" to="4773029#0"/>
    <trip id="291" depart="174.60" from="35557161#4" to="1079495669#0"/>
    <trip id="292" depart="175.20" from="-4611706#1" to="-4611708#2"/>
    <trip id="293" depart="175.80" from="28251222#0" to="-4611712"/>
    <trip id="294" depart="176.40" from="35557161#0" to="-66071366#4"/>
    <trip id="295" depart="177.00" from="-882389497" to="22972473#3"/>
    <trip id="296" depart="177.60" from="24913267#0" to="-4611712"/>
    <trip id="297" depart="178.20" from="1073015934" to="-196850606#0"/>
    <trip id="298" depart="178.80" from="47755711#0" to="-35557161#4"/>
    <trip id="299" depart="179.40" from="168935757#3" to="-474362271"/>
    <trip id="300" depart="180.00" from="-196850606#0" to="461526152#0"/>
    <trip id="301" depart="180.60" from="4588220#0" to="375459782#0"/>
    <trip id="302" depart="181.20" from="-4588222#1" to="66071366#3"/>
    <trip id="303" depart="181.80" from="-24242882" to="474362272"/>
    <trip id="304" depart="182.40" from="66071379#0" to="292429056#0"/>
    <trip id="305" depart="183.00" from="168935757#0" to="-375459782#1"/>
    <trip id="306" depart="183.60" from="35557161#0" to="-474362271"/>
    <trip id="307" depart="184.20" from="66071379#0" to="23755961#0"/>
    <trip id="308" depart="184.80" from="-4588219#2" to="882389497"/>
    <trip id="309" depart="185.40" from="-4588222#1" to="4588219#0"/>
    <trip id="310" depart="186.00" from="-28251222#2" to="-389101365#3"/>
    <trip id="311" depart="186.60" from="-196850606#0" to="gneE2"/>
    <trip id="312" depart="187.20" from="66071373#0" to="-24242882"/>
    <trip id="313" depart="187.80" from="66071379#0" to="35557161#3"/>
    <trip id="314" depart="188.40" from="292429056#0" to="-882389497"/>
    <trip id="315" depart="189.00" from="4611713#0" to="-4611713#1"/>
    <trip id="316" depart="189.60" from="-874528353#4" to="gneE0"/>
    <trip id="317" depart="190.20" from="-23755961#1" to="23017853"/>
    <trip id="318" depart="190.80" from="-24913267#3" to="-35557161#3"/>
    <trip id="319" depart="191.40" from="1073015934" to="-gneE1"/>
    <trip id="320" depart="192.00" from="196850606#6" to="340498982#4"/>
    <trip id="321" depart="192.60" from="-43376693#2" to="292429056#0"/>
    <trip id="322" depart="193.20" from="-23017853" to="-874528353#4"/>
    <trip id="323" depart="193.80" from="-66071366#4" to="43376693#0"/>
    <trip id="324" depart="194.40" from="47755711#0" to="22972473#5"/>
    <trip id="325" depart="195.00" from="196850606#6" to="1073015934"/>
    <trip id="326" depart="195.60" from="168935757#3" to="47755711#0"/>
    <trip id="327" depart="196.20" from="-gneE0" to="-43376693#2"/>
    <trip id="328" depart="196.80" from="-23755961#1" to="4773029#0"/>
    <trip id="329" depart="197.40" from="66071366#0" to="-43376693#2"/>
    <trip id="330" depart="198.00" from="-1105574291#2" to="-474362271"/>
    <trip id="331" depart="198.60" from="-24913267#3" to="168935757#3"/>
    <trip id="332" depart="199.20" from="-43376693#2" to="461526152#0"/>
    <trip id="333" depart="199.80" from="461526152#0" to="43376693#0"/>
    <trip id="334" depart="200.40" from="-23017853" to="-gneE2"/>
    <trip id="335" depart="201.00" from="-gneE0" to="-168935757#2"/>
    <trip id="336" depart="201.60" from="4588220#0" to="66071366#0"/>
    <trip id="337" depart="202.20" from="-28251222#2" to="66071370"/>
    <trip id="338" depart="202.80" from="-23755961#1" to="340498982#4"/>
    <trip id="339" depart="203.40" from="24242882" to="-665241888#1"/>
    <trip id="340" depart="204.00" from="-35557161#3" to="196850606#0"/>
    <trip id="341" depart="204.60" from="35557161#4" to="-4611710#2"/>
    <trip id="342" depart="205.20" from="753316505#0" to="-4611706#1"/>
    <trip id="343" depart="205.80" from="gneE3" to="168935757#3"/>
    <trip id="344" depart="206.40" from="22972473#3" to="47707171#5"/>
    <trip id="345" depart="207.00" from="-43376693#2" to="474362272"/>
    <trip id="346" depart="207.60" from="-23755961#1" to="-28251222#2"/>
    <trip id="347" depart="208.20" from="4773029#0" to="4611712"/>
    <trip id="348" depart="208.80" from="35557143#0" to="-24997595#1"/>
    <trip id="349" depart="209.40" from="24913267#0" to="47755711#0"/>
    <trip id="350" depart="210.00" from="-4611712" to="1110748916"/>
    <trip id="351" depart="210.60" from="gneE1" to="-24913267#3"/>
    <trip id="352" depart="211.20" from="66071379#0" to="gneE0"/>
    <trip id="353" depart="211.80" from="24913267#0" to="389101365#0"/>
    <trip id="354" depart="212.40" from="375459782#0" to="340498982#4"/>
    <trip id="355" depart="213.00" from="-168935757#3" to="47707171#5"/>
    <trip id="356" depart="213.60" from="-43376693#2" to="-474362271"/>
    <trip id="357" depart="214.20" from="24913267#0" to="-474362271"/>
    <trip id="358" depart="214.80" from="1073015936" to="4588217"/>
    <trip id="359" depart="215.40" from="28251222#0" to="-196850606#4"/>
    <trip id="360" depart="216.00" from="-1105574291#2" to="340498982#4"/>
    <trip id="361" depart="216.60" from="-24242882" to="4588217"/>
    <trip id="362" depart="217.20" from="-1105574289#1" to="35557143#0"/>
    <trip id="363" depart="217.80" from="24913267#0" to="-4773029#2"/>
    <trip id="364" depart="218.40" from="23017853" to="1073015940"/>
    <trip id="365" depart="219.00" from="66071379#0" to="-292429056#5"/>
    <trip id="366" depart="219.60" from="47707171#5" to="-gneE1"/>
    <trip id="367" depart="220.20" from="-196850606#8" to="1073015936"/>
    <trip id="368" depart="220.80" from="-24242882" to="-35557161#3"/>
    <trip id="369" depart="221.40" from="-28251222#2" to="-1105574289#1"/>
    <trip id="370" depart="222.00" from="-196850606#8" to="340498982#4"/>
    <trip id="371" depart="222.60" from="24242882" to="-47755711#2"/>
    <trip id="372" depart="223.20" from="840229277" to="-882389497"/>
    <trip id="373" depart="223.80" from="66071379#0" to="-4611706#1"/>
    <trip id="374" depart="224.40" from="461526152#0" to="-474362271"/>
    <trip id="375" depart="225.00" from="168935757#0" to="35557161#4"/>
    <trip id="376" depart="225.60" from="4773029#0" to="-375459783#1"/>
    <trip id="377" depart="226.20" from="474362272" to="1073015936"/>
    <trip id="378" depart="226.80" from="24913267#0" to="4588222#0"/>
    <trip id="379" depart="227.40" from="-168935757#2" to="882389497"/>
    <trip id="380" depart="228.00" from="-194069450#2" to="-24913267#3"/>
    <trip id="381" depart="228.60" from="-4611712" to="1110748916"/>
    <trip id="382" depart="229.20" from="24913267#0" to="-43376693#2"/>
    <trip id="383" depart="229.80" from="1079495669#0" to="1073015936"/>
    <trip id="384" depart="230.40" from="882389497" to="-35557161#4"/>
    <trip id="385" depart="231.00" from="196850606#1" to="66071370"/>
    <trip id="386" depart="231.60" from="-66071366#2" to="340498982#4"/>
    <trip id="387" depart="232.20" from="23017853" to="66071370"/>
    <trip id="388" depart="232.80" from="-1105574291#2" to="-882389497"/>
    <trip id="389" depart="233.40" from="168935757#3" to="-168935757#2"/>
    <trip id="390" depart="234.00" from="-gneE1" to="1116358457"/>
    <trip id="391" depart="234.60" from="47707170#3" to="196850606#0"/>
    <trip id="392" depart="235.20" from="gneE0" to="-474362271"/>
    <trip id="393" depart="235.80" from="-4773029#2" to="-gneE0"/>
    <trip id="394" depart="236.40" from="-66071366#2" to="-474362271"/>
    <trip id="395" depart="237.00" from="1073015934" to="-474362271"/>
    <trip id="396" depart="237.60" from="1073015940" to="66071370"/>
    <trip id="397" depart="238.20" from="-882389497" to="168935757#0"/>
    <trip id="398" depart="238.80" from="22972473#3" to="340498982#0"/>
    <trip id="399" depart="239.40" from="47707170#3" to="-196850606#0"/>
    <trip id="400" depart="240.00" from="-gneE3" to="-326116286#2"/>
    <trip id="401" depart="240.60" from="66071379#0" to="1105574291#0"/>
    <trip id="402" depart="241.20" from="-gneE1" to="-47755711#2"/>
    <trip id="403" depart="241.80" from="35557161#0" to="-196850606#0"/>
    <trip id="404" depart="242.40" from="-66071366#4" to="47755711#0"/>
    <trip id="405" depart="243.00" from="4611713#1" to="196850606#0"/>
    <trip id="406" depart="243.60" from="22972473#0" to="-474362271"/>
    <trip id="407" depart="244.20" from="1105574289#0" to="23017852#0"/>
    <trip id="408" depart="244.80" from="461526152#0" to="340498982#4"/>
    <trip id="409" depart="245.40" from="1105574291#0" to="-474362271"/>
    <trip id="410" depart="246.00" from="1073015934" to="4611708#0"/>
    <trip id="411" depart="246.60" from="-196850606#4" to="23755961#0"/>
    <trip id="412" depart="247.20" from="23017853" to="-474362271"/>
    <trip id="413" depart="247.80" from="68647306#0" to="1073015940"/>
    <trip id="414" depart="248.40" from="326116286#0" to="882389497"/>
    <trip id="415" depart="249.00" from="4611710#0" to="35557143#0"/>
    <trip id="416" depart="249.60" from="665241888#0" to="-35557161#4"/>
    <trip id="417" depart="250.20" from="4588217" to="-66071370"/>
    <trip id="418" depart="250.80" from="22972470#2" to="-474362271"/>
    <trip id="419" depart="251.40" from="-4588222#1" to="4611706#0"/>
    <trip id="420" depart="252.00" from="47707171#5" to="4588222#0"/>