<?xml version="1.0" encoding="UTF-8"?>

<!-- generated on 11/29/22 03:57:23 by Eclipse SUMO netedit Version 1.8.0
<configuration xmlns:xsi="http://www.w3.org/2001/XMLSchema-instance" xsi:noNamespaceSchemaLocation="http://sumo.dlr.de/xsd/netconvertConfiguration.xsd">

    <input>
        <sumo-net-file value="D:\hhc\venet%20caching\sumo-1.8.0\experiments\beijing\bj.net.xml"/>
    </input>

    <output>
        <output-file value="D:\hhc\venet%20caching\sumo-1.8.0\experiments\beijing\bj.net.xml"/>
        <output.street-names value="true"/>
    </output>

    <processing>
        <geometry.min-radius.fix.railways value="false"/>
        <geometry.max-grade.fix value="false"/>
        <offset.disable-normalization value="true"/>
        <lefthand value="false"/>
    </processing>

    <junctions>
        <no-turnarounds value="true"/>
        <junctions.corner-detail value="5"/>
        <junctions.limit-turn-speed value="5.5"/>
        <rectangular-lane-cut value="false"/>
    </junctions>

    <pedestrian>
        <walkingareas value="false"/>
    </pedestrian>

    <report>
        <aggregate-warnings value="5"/>
    </report>

</configuration>
-->

<net version="1.6" junctionCornerDetail="5" limitTurnSpeed="5.50" xmlns:xsi="http://www.w3.org/2001/XMLSchema-instance" xsi:noNamespaceSchemaLocation="http://sumo.dlr.de/xsd/net_file.xsd">

    <location netOffset="-439073.60,-4417684.17" convBoundary="0.00,0.00,13585.15,12577.02" origBoundary="116.261341,39.907753,116.564237,40.020957" projParameter="+proj=utm +zone=50 +ellps=WGS84 +datum=WGS84 +units=m +no_defs"/>

    <type id="highway.bridleway" priority="1" numLanes="1" speed="2.78" allow="pedestrian" oneway="1" width="2.00"/>
    <type id="highway.bus_guideway" priority="1" numLanes="1" speed="27.78" allow="bus" oneway="1"/>
    <type id="highway.cycleway" priority="1" numLanes="1" speed="8.33" allow="bicycle" oneway="1" width="1.00"/>
    <type id="highway.footway" priority="1" numLanes="1" speed="2.78" allow="pedestrian" oneway="1" width="2.00"/>
    <type id="highway.ford" priority="1" numLanes="1" speed="2.78" allow="army" oneway="1"/>
    <type id="highway.living_street" priority="2" numLanes="1" speed="2.78" disallow="tram rail_urban rail rail_electric rail_fast ship" oneway="1"/>
    <type id="highway.motorway" priority="14" numLanes="2" speed="39.44" allow="private emergency authority army vip passenger hov taxi bus coach delivery truck trailer motorcycle evehicle custom1 custom2" oneway="1"/>
    <type id="highway.motorway_link" priority="9" numLanes="1" speed="22.22" allow="private emergency authority army vip passenger hov taxi bus coach delivery truck trailer motorcycle evehicle custom1 custom2" oneway="1"/>
    <type id="highway.path" priority="1" numLanes="1" speed="2.78" allow="pedestrian bicycle" oneway="1" width="2.00"/>
    <type id="highway.pedestrian" priority="1" numLanes="1" speed="2.78" allow="pedestrian" oneway="1" width="2.00"/>
    <type id="highway.primary" priority="12" numLanes="2" speed="27.78" disallow="tram rail_urban rail rail_electric rail_fast ship" oneway="1"/>
    <type id="highway.primary_link" priority="7" numLanes="1" speed="22.22" disallow="tram rail_urban rail rail_electric rail_fast ship" oneway="1"/>
    <type id="highway.raceway" priority="15" numLanes="2" speed="83.33" allow="vip" oneway="1"/>
    <type id="highway.residential" priority="3" numLanes="1" speed="13.89" disallow="tram rail_urban rail rail_electric rail_fast ship" oneway="1"/>
    <type id="highway.secondary" priority="11" numLanes="1" speed="27.78" disallow="tram rail_urban rail rail_electric rail_fast ship" oneway="1"/>
    <type id="highway.secondary_link" priority="6" numLanes="1" speed="22.22" disallow="tram rail_urban rail rail_electric rail_fast ship" oneway="1"/>
    <type id="highway.service" priority="1" numLanes="1" speed="5.56" allow="pedestrian delivery bicycle" oneway="1"/>
    <type id="highway.stairs" priority="1" numLanes="1" speed="1.39" allow="pedestrian" oneway="1" width="2.00"/>
    <type id="highway.step" priority="1" numLanes="1" speed="1.39" allow="pedestrian" oneway="1" width="2.00"/>
    <type id="highway.steps" priority="1" numLanes="1" speed="1.39" allow="pedestrian" oneway="1" width="2.00"/>
    <type id="highway.tertiary" priority="10" numLanes="1" speed="22.22" disallow="tram rail_urban rail rail_electric rail_fast ship" oneway="1"/>
    <type id="highway.tertiary_link" priority="5" numLanes="1" speed="22.22" disallow="tram rail_urban rail rail_electric rail_fast ship" oneway="1"/>
    <type id="highway.track" priority="1" numLanes="1" speed="5.56" allow="pedestrian motorcycle moped bicycle" oneway="1"/>
    <type id="highway.trunk" priority="13" numLanes="2" speed="27.78" disallow="pedestrian bicycle tram rail_urban rail rail_electric rail_fast ship" oneway="1"/>
    <type id="highway.trunk_link" priority="8" numLanes="1" speed="22.22" disallow="pedestrian bicycle tram rail_urban rail rail_electric rail_fast ship" oneway="1"/>
    <type id="highway.unclassified" priority="4" numLanes="1" speed="13.89" disallow="tram rail_urban rail rail_electric rail_fast ship" oneway="1"/>
    <type id="highway.unsurfaced" priority="1" numLanes="1" speed="8.33" disallow="tram rail_urban rail rail_electric rail_fast ship" oneway="1"/>
    <type id="railway.highspeed" priority="21" numLanes="1" speed="69.44" allow="rail_fast" oneway="1"/>
    <type id="railway.light_rail" priority="19" numLanes="1" speed="27.78" allow="rail_urban" oneway="1"/>
    <type id="railway.preserved" priority="16" numLanes="1" speed="27.78" allow="rail" oneway="1"/>
    <type id="railway.rail" priority="20" numLanes="1" speed="44.44" allow="rail" oneway="1"/>
    <type id="railway.subway" priority="18" numLanes="1" speed="27.78" allow="rail_urban" oneway="1"/>
    <type id="railway.tram" priority="17" numLanes="1" speed="13.89" allow="tram" oneway="1"/>

    <edge id=":10003708074_0" function="internal">
        <lane id=":10003708074_0_0" index="0" disallow="tram rail_urban rail rail_electric rail_fast ship" speed="6.60" length="9.15" shape="8715.14,8283.80 8712.63,8284.13 8710.81,8285.15 8709.68,8286.88 8709.25,8289.31"/>
    </edge>
    <edge id=":10003708074_1" function="internal">
        <lane id=":10003708074_1_0" index="0" disallow="tram rail_urban rail rail_electric rail_fast ship" speed="3.65" length="4.67" shape="8715.14,8283.80 8713.95,8282.99 8713.56,8282.19 8713.96,8281.39 8715.17,8280.60"/>
    </edge>
    <edge id=":10003708074_2" function="internal">
        <lane id=":10003708074_2_0" index="0" disallow="tram rail_urban rail rail_electric rail_fast ship" speed="6.46" length="9.03" shape="8709.72,8274.92 8709.99,8277.38 8710.99,8279.15 8712.71,8280.23 8715.17,8280.60"/>
    </edge>
    <edge id=":10003708074_3" function="internal">
        <lane id=":10003708074_3_0" index="0" disallow="tram rail_urban rail rail_electric rail_fast ship" speed="22.22" length="14.40" shape="8709.72,8274.92 8709.25,8289.31"/>
    </edge>
    <edge id=":10003708075_0" function="internal">
        <lane id=":10003708075_0_0" index="0" disallow="tram rail_urban rail rail_electric rail_fast ship" speed="3.65" length="4.67" shape="8937.74,8282.63 8938.94,8283.44 8939.33,8284.24 8938.92,8285.04 8937.72,8285.83"/>
    </edge>
    <edge id=":10003708076_0" function="internal">
        <lane id=":10003708076_0_0" index="0" disallow="tram rail_urban rail rail_electric rail_fast ship" speed="13.89" length="4.88" shape="8893.48,8226.00 8888.61,8226.26"/>
    </edge>
    <edge id=":10003708076_1" function="internal">
        <lane id=":10003708076_1_0" index="0" disallow="tram rail_urban rail rail_electric rail_fast ship" speed="3.65" length="2.34" shape="8893.48,8226.00 8892.22,8225.31 8891.74,8224.55"/>
    </edge>
    <edge id=":10003708076_4" function="internal">
        <lane id=":10003708076_4_0" index="0" disallow="tram rail_urban rail rail_electric rail_fast ship" speed="3.65" length="2.34" shape="8891.74,8224.55 8892.07,8223.72 8893.19,8222.81"/>
    </edge>
    <edge id=":10003708076_2" function="internal">
        <lane id=":10003708076_2_0" index="0" disallow="tram rail_urban rail rail_electric rail_fast ship" speed="13.89" length="4.63" shape="8888.56,8223.06 8893.19,8222.81"/>
    </edge>
    <edge id=":10003708076_3" function="internal">
        <lane id=":10003708076_3_0" index="0" disallow="tram rail_urban rail rail_electric rail_fast ship" speed="3.65" length="2.34" shape="8888.56,8223.06 8889.78,8223.84 8890.19,8224.63"/>
    </edge>
    <edge id=":10003708076_5" function="internal">
        <lane id=":10003708076_5_0" index="0" disallow="tram rail_urban rail rail_electric rail_fast ship" speed="3.65" length="2.34" shape="8890.19,8224.63 8889.80,8225.44 8888.61,8226.26"/>
    </edge>
    <edge id=":10003708079_0" function="internal">
        <lane id=":10003708079_0_0" index="0" disallow="tram rail_urban rail rail_electric rail_fast ship" speed="13.89" length="5.01" shape="8920.59,8285.68 8915.59,8285.63"/>
    </edge>
    <edge id=":10003708079_1" function="internal">
        <lane id=":10003708079_1_0" index="0" disallow="tram rail_urban rail rail_electric rail_fast ship" speed="3.65" length="2.34" shape="8920.59,8285.68 8919.40,8284.87 8919.01,8284.07"/>
    </edge>
    <edge id=":10003708079_4" function="internal">
        <lane id=":10003708079_4_0" index="0" disallow="tram rail_urban rail rail_electric rail_fast ship" speed="3.65" length="2.34" shape="8919.01,8284.07 8919.41,8283.27 8920.62,8282.48"/>
    </edge>
    <edge id=":10003708079_2" function="internal">
        <lane id=":10003708079_2_0" index="0" disallow="tram rail_urban rail rail_electric rail_fast ship" speed="13.89" length="5.01" shape="8915.62,8282.43 8920.62,8282.48"/>
    </edge>
    <edge id=":10003708079_3" function="internal">
        <lane id=":10003708079_3_0" index="0" disallow="tram rail_urban rail rail_electric rail_fast ship" speed="3.65" length="2.34" shape="8915.62,8282.43 8916.81,8283.25 8917.20,8284.05"/>
    </edge>
    <edge id=":10003708079_5" function="internal">
        <lane id=":10003708079_5_0" index="0" disallow="tram rail_urban rail rail_electric rail_fast ship" speed="3.65" length="2.34" shape="8917.20,8284.05 8916.79,8284.85 8915.59,8285.63"/>
    </edge>
    <edge id=":10004074880_0" function="internal">
        <lane id=":10004074880_0_0" index="0" disallow="tram rail_urban rail rail_electric rail_fast ship" speed="22.22" length="5.00" shape="8377.04,7513.62 8382.04,7513.60"/>
    </edge>
    <edge id=":10004074881_0" function="internal">
        <lane id=":10004074881_0_0" index="0" disallow="tram rail_urban rail rail_electric rail_fast ship" speed="22.22" length="5.04" shape="8381.84,7547.44 8376.80,7547.43"/>
    </edge>
    <edge id=":10004080005_0" function="internal">
        <lane id=":10004080005_0_0" index="0" disallow="tram rail_urban rail rail_electric rail_fast ship" speed="6.24" length="8.56" shape="8592.56,8159.15 8594.78,8158.95 8596.38,8158.00 8597.36,8156.28 8597.71,8153.81"/>
    </edge>
    <edge id=":10004080005_1" function="internal">
        <lane id=":10004080005_1_0" index="0" disallow="tram rail_urban rail rail_electric rail_fast ship" speed="7.07" length="11.31" shape="8592.56,8159.15 8596.18,8159.04 8598.78,8158.12 8600.36,8156.39 8600.91,8153.85"/>
    </edge>
    <edge id=":10004080005_2" function="internal">
        <lane id=":10004080005_2_0" index="0" disallow="tram rail_urban rail rail_electric rail_fast ship" speed="25.00" length="21.13" shape="8592.56,8159.15 8613.67,8160.24"/>
    </edge>
    <edge id=":10004080005_3" function="internal">
        <lane id=":10004080005_3_0" index="0" disallow="tram rail_urban rail rail_electric rail_fast ship" speed="27.78" length="11.80" shape="8597.56,8165.62 8597.71,8153.81"/>
        <lane id=":10004080005_3_1" index="1" disallow="tram rail_urban rail rail_electric rail_fast ship" speed="27.78" length="11.80" shape="8600.76,8165.66 8600.91,8153.85"/>
        <lane id=":10004080005_3_2" index="2" disallow="tram rail_urban rail rail_electric rail_fast ship" speed="27.78" length="11.80" shape="8603.96,8165.70 8604.11,8153.89"/>
        <lane id=":10004080005_3_3" index="3" disallow="tram rail_urban rail rail_electric rail_fast ship" speed="27.78" length="11.80" shape="8607.16,8165.73 8607.31,8153.94"/>
        <lane id=":10004080005_3_4" index="4" disallow="tram rail_urban rail rail_electric rail_fast ship" speed="27.78" length="11.80" shape="8610.36,8165.77 8610.51,8153.98"/>
    </edge>
    <edge id=":10004080005_8" function="internal">
        <lane id=":10004080005_8_0" index="0" disallow="tram rail_urban rail rail_electric rail_fast ship" speed="5.86" length="7.22" shape="8610.36,8165.77 8610.59,8163.31 8611.22,8161.57 8612.25,8160.55 8613.67,8160.24"/>
    </edge>
    <edge id=":10004080006_0" function="internal">
        <lane id=":10004080006_0_0" index="0" disallow="tram rail_urban rail rail_electric rail_fast ship" speed="6.41" length="8.93" shape="8701.28,8157.23 8701.57,8159.64 8702.58,8161.36 8704.32,8162.39 8706.78,8162.73"/>
    </edge>
    <edge id=":10004080006_1" function="internal">
        <lane id=":10004080006_1_0" index="0" disallow="tram rail_urban rail rail_electric rail_fast ship" speed="27.78" length="11.24" shape="8701.28,8157.23 8700.99,8168.46"/>
        <lane id=":10004080006_1_1" index="1" disallow="tram rail_urban rail rail_electric rail_fast ship" speed="27.78" length="11.24" shape="8698.08,8157.15 8697.79,8168.38"/>
        <lane id=":10004080006_1_2" index="2" disallow="tram rail_urban rail rail_electric rail_fast ship" speed="27.78" length="11.24" shape="8694.88,8157.06 8694.59,8168.30"/>
        <lane id=":10004080006_1_3" index="3" disallow="tram rail_urban rail rail_electric rail_fast ship" speed="27.78" length="11.24" shape="8691.68,8156.98 8691.40,8168.23"/>
        <lane id=":10004080006_1_4" index="4" disallow="tram rail_urban rail rail_electric rail_fast ship" speed="27.78" length="11.24" shape="8688.48,8156.90 8688.20,8168.15"/>
    </edge>
    <edge id=":10004080006_6" function="internal">
        <lane id=":10004080006_6_0" index="0" disallow="tram rail_urban rail rail_electric rail_fast ship" speed="25.00" length="24.05" shape="8682.73,8162.38 8706.78,8162.73"/>
    </edge>
    <edge id=":10004080006_7" function="internal">
        <lane id=":10004080006_7_0" index="0" disallow="tram rail_urban rail rail_electric rail_fast ship" speed="8.12" length="14.56" shape="8682.73,8162.38 8687.97,8162.90 8691.70,8164.05 8693.90,8165.85 8694.59,8168.30"/>
    </edge>
    <edge id=":10004080006_8" function="internal">
        <lane id=":10004080006_8_0" index="0" disallow="tram rail_urban rail rail_electric rail_fast ship" speed="7.34" length="11.73" shape="8682.73,8162.38 8686.57,8162.85 8689.30,8163.98 8690.90,8165.77 8691.40,8168.23"/>
    </edge>
    <edge id=":10004080006_9" function="internal">
        <lane id=":10004080006_9_0" index="0" disallow="tram rail_urban rail rail_electric rail_fast ship" speed="6.53" length="9.05" shape="8682.73,8162.38 8685.17,8162.81 8686.90,8163.91 8687.91,8165.69 8688.20,8168.15"/>
    </edge>
    <edge id=":10004080007_0" function="internal">
        <lane id=":10004080007_0_0" index="0" disallow="tram rail_urban rail rail_electric rail_fast ship" speed="22.22" length="2.72" shape="8613.87,8160.25 8616.58,8160.33"/>
    </edge>
    <edge id=":10004080012_0" function="internal">
        <lane id=":10004080012_0_0" index="0" disallow="tram rail_urban rail rail_electric rail_fast ship" speed="22.22" length="5.04" shape="8675.28,8162.15 8680.32,8162.31"/>
    </edge>
    <edge id=":10004080013_0" function="internal">
        <lane id=":10004080013_0_0" index="0" disallow="tram rail_urban rail rail_electric rail_fast ship" speed="22.22" length="5.02" shape="8679.71,8176.17 8674.69,8175.99"/>
    </edge>
    <edge id=":10004080014_0" function="internal">
        <lane id=":10004080014_0_0" index="0" disallow="tram rail_urban rail rail_electric rail_fast ship" speed="27.78" length="5.20" shape="8701.41,8151.89 8701.28,8157.10"/>
        <lane id=":10004080014_0_1" index="1" disallow="tram rail_urban rail rail_electric rail_fast ship" speed="27.78" length="5.20" shape="8698.21,8151.82 8698.08,8157.01"/>
        <lane id=":10004080014_0_2" index="2" disallow="tram rail_urban rail rail_electric rail_fast ship" speed="27.78" length="5.20" shape="8695.02,8151.74 8694.88,8156.93"/>
        <lane id=":10004080014_0_3" index="3" disallow="tram rail_urban rail rail_electric rail_fast ship" speed="27.78" length="5.20" shape="8691.82,8151.66 8691.68,8156.85"/>
        <lane id=":10004080014_0_4" index="4" disallow="tram rail_urban rail rail_electric rail_fast ship" speed="27.78" length="5.20" shape="8688.62,8151.58 8688.49,8156.76"/>
    </edge>
    <edge id=":10004080015_0" function="internal">
        <lane id=":10004080015_0_0" index="0" disallow="tram rail_urban rail rail_electric rail_fast ship" speed="27.78" length="5.18" shape="8700.35,8190.63 8700.18,8195.80"/>
        <lane id=":10004080015_0_1" index="1" disallow="tram rail_urban rail rail_electric rail_fast ship" speed="27.78" length="5.18" shape="8697.15,8190.52 8696.99,8195.70"/>
        <lane id=":10004080015_0_2" index="2" disallow="tram rail_urban rail rail_electric rail_fast ship" speed="27.78" length="5.18" shape="8693.95,8190.42 8693.79,8195.60"/>
        <lane id=":10004080015_0_3" index="3" disallow="tram rail_urban rail rail_electric rail_fast ship" speed="27.78" length="5.18" shape="8690.75,8190.32 8690.59,8195.50"/>
        <lane id=":10004080015_0_4" index="4" disallow="tram rail_urban rail rail_electric rail_fast ship" speed="27.78" length="5.18" shape="8687.56,8190.22 8687.39,8195.39"/>
    </edge>
    <edge id=":10004080016_0" function="internal">
        <lane id=":10004080016_0_0" index="0" disallow="tram rail_urban rail rail_electric rail_fast ship" speed="22.22" length="4.63" shape="8713.99,8152.74 8713.89,8157.37"/>
    </edge>
    <edge id=":10004116517_0" function="internal">
        <lane id=":10004116517_0_0" index="0" disallow="tram rail_urban rail rail_electric rail_fast ship" speed="27.78" length="5.05" shape="8720.81,8162.90 8725.87,8163.04"/>
    </edge>
    <edge id=":10004116518_0" function="internal">
        <lane id=":10004116518_0_0" index="0" disallow="tram rail_urban rail rail_electric rail_fast ship" speed="27.78" length="5.09" shape="8725.18,8179.05 8720.09,8178.97"/>
    </edge>
    <edge id=":10004116519_0" function="internal">
        <lane id=":10004116519_0_0" index="0" disallow="tram rail_urban rail rail_electric rail_fast ship" speed="22.22" length="5.03" shape="8712.44,8191.29 8712.28,8196.32"/>
    </edge>
    <edge id=":10106712908_0" function="internal">
        <lane id=":10106712908_0_0" index="0" allow="bicycle" speed="8.33" length="5.00" width="1.00" shape="10445.32,8865.28 10440.32,8865.14"/>
    </edge>
    <edge id=":10106712908_1" function="internal">
        <lane id=":10106712908_1_0" index="0" allow="bicycle" speed="2.04" length="0.73" width="1.00" shape="10445.32,8865.28 10444.95,8865.02 10444.83,8864.77"/>
    </edge>
    <edge id=":10106712908_4" function="internal">
        <lane id=":10106712908_4_0" index="0" allow="bicycle" speed="2.04" length="0.73" width="1.00" shape="10444.83,8864.77 10444.96,8864.52 10445.35,8864.29"/>
    </edge>
    <edge id=":10106712908_2" function="internal">
        <lane id=":10106712908_2_0" index="0" allow="bicycle" speed="8.33" length="5.00" width="1.00" shape="10440.35,8864.14 10445.35,8864.29"/>
    </edge>
    <edge id=":10106712908_3" function="internal">
        <lane id=":10106712908_3_0" index="0" allow="bicycle" speed="2.04" length="0.73" width="1.00" shape="10440.35,8864.14 10440.72,8864.40 10440.83,8864.65"/>
    </edge>
    <edge id=":10106712908_5" function="internal">
        <lane id=":10106712908_5_0" index="0" allow="bicycle" speed="2.04" length="0.73" width="1.00" shape="10440.83,8864.65 10440.70,8864.90 10440.32,8865.14"/>
    </edge>
    <edge id=":10106712909_0" function="internal">
        <lane id=":10106712909_0_0" index="0" disallow="tram rail_urban rail rail_electric rail_fast ship" speed="22.22" length="5.00" shape="10445.65,8855.27 10440.65,8855.07"/>
    </edge>
    <edge id=":10106716318_0" function="internal">
        <lane id=":10106716318_0_0" index="0" allow="bicycle" speed="10.55" length="5.02" width="1.00" shape="10489.47,8860.62 10488.01,8860.67 10487.03,8860.95 10486.11,8861.45 10484.81,8862.19"/>
    </edge>
    <edge id=":10106716318_1" function="internal">
        <lane id=":10106716318_1_0" index="0" disallow="tram rail_urban rail rail_electric rail_fast ship" speed="22.22" length="5.25" shape="10489.50,8859.52 10487.96,8859.39 10486.93,8859.11 10485.93,8858.71 10484.45,8858.20"/>
    </edge>
    <edge id=":10106716318_2" function="internal">
        <lane id=":10106716318_2_0" index="0" allow="bicycle" speed="3.19" length="3.35" shape="10484.34,8861.31 10485.22,8860.70 10485.48,8860.16 10485.12,8859.67 10484.14,8859.25"/>
    </edge>
    <edge id=":10106716318_3" function="internal">
        <lane id=":10106716318_3_0" index="0" allow="bicycle" speed="2.04" length="1.46" width="1.00" shape="10484.34,8861.31 10484.79,8861.35 10485.02,8861.52 10485.03,8861.80 10484.81,8862.19"/>
    </edge>
    <edge id=":1055624804-AddedOffRampNode_0" function="internal">
        <lane id=":1055624804-AddedOffRampNode_0_0" index="0" disallow="tram rail_urban rail rail_electric rail_fast ship" speed="27.78" length="8.27" shape="10647.24,8377.35 10647.67,8379.83 10648.72,8381.40 10649.77,8382.97 10650.19,8385.45"/>
        <lane id=":1055624804-AddedOffRampNode_0_1" index="1" disallow="tram rail_urban rail rail_electric rail_fast ship" speed="27.78" length="8.27" shape="10647.24,8377.35 10646.99,8385.35"/>
        <lane id=":1055624804-AddedOffRampNode_0_2" index="2" disallow="tram rail_urban rail rail_electric rail_fast ship" speed="27.78" length="8.27" shape="10644.05,8377.25 10643.79,8385.25"/>
    </edge>
    <edge id=":1055899086#0-AddedOffRampNode_0" function="internal">
        <lane id=":1055899086#0-AddedOffRampNode_0_0" index="0" disallow="tram rail_urban rail rail_electric rail_fast ship" speed="27.78" length="8.40" shape="8684.50,6800.00 8684.07,6797.52 8683.02,6795.95 8681.97,6794.38 8681.54,6791.90"/>
        <lane id=":1055899086#0-AddedOffRampNode_0_1" index="1" disallow="tram rail_urban rail rail_electric rail_fast ship" speed="27.78" length="8.40" shape="8684.50,6800.00 8684.74,6792.00"/>
    </edge>
    <edge id=":1056891569-AddedOnRampNode_0" function="internal">
        <lane id=":1056891569-AddedOnRampNode_0_0" index="0" disallow="pedestrian bicycle tram rail_urban rail rail_electric rail_fast ship" speed="27.78" length="8.00" shape="9550.37,6626.83 9558.37,6627.00"/>
        <lane id=":1056891569-AddedOnRampNode_0_1" index="1" disallow="pedestrian bicycle tram rail_urban rail rail_electric rail_fast ship" speed="27.78" length="8.00" shape="9550.31,6630.04 9558.31,6630.20"/>
    </edge>
    <edge id=":1056891571#1-AddedOnRampNode_0" function="internal">
        <lane id=":1056891571#1-AddedOnRampNode_0_0" index="0" disallow="tram rail_urban rail rail_electric rail_fast ship" speed="22.22" length="8.00" shape="9040.53,6591.84 9048.52,6592.24"/>
    </edge>
    <edge id=":1066708132-AddedOnRampNode_0" function="internal">
        <lane id=":1066708132-AddedOnRampNode_0_0" index="0" allow="private emergency authority army vip passenger hov taxi bus coach delivery truck trailer motorcycle evehicle custom1 custom2" speed="39.44" length="8.00" shape="7512.26,6977.91 7511.55,6969.94"/>
        <lane id=":1066708132-AddedOnRampNode_0_1" index="1" allow="private emergency authority army vip passenger hov taxi bus coach delivery truck trailer motorcycle evehicle custom1 custom2" speed="39.44" length="8.00" shape="7515.45,6977.63 7514.73,6969.66"/>
        <lane id=":1066708132-AddedOnRampNode_0_2" index="2" allow="private emergency authority army vip passenger hov taxi bus coach delivery truck trailer motorcycle evehicle custom1 custom2" speed="39.44" length="8.00" shape="7518.64,6977.34 7517.92,6969.37"/>
    </edge>
    <edge id=":1066708135#2-AddedOffRampNode_0" function="internal">
        <lane id=":1066708135#2-AddedOffRampNode_0_0" index="0" disallow="tram rail_urban rail rail_electric rail_fast ship" speed="27.78" length="8.40" shape="7483.00,6757.44 7482.27,6755.04 7481.03,6753.61 7479.79,6752.18 7479.06,6749.78"/>
        <lane id=":1066708135#2-AddedOffRampNode_0_1" index="1" disallow="tram rail_urban rail rail_electric rail_fast ship" speed="27.78" length="8.40" shape="7483.00,6757.44 7482.24,6749.48"/>
    </edge>
    <edge id=":1071305096-AddedOffRampNode_0" function="internal">
        <lane id=":1071305096-AddedOffRampNode_0_0" index="0" disallow="tram rail_urban rail rail_electric rail_fast ship" speed="22.22" length="10.27" shape="7358.55,8716.68 7359.47,8719.43 7362.45,8721.18 7365.39,8723.16 7366.15,8726.60"/>
        <lane id=":1071305096-AddedOffRampNode_0_1" index="1" disallow="tram rail_urban rail rail_electric rail_fast ship" speed="22.22" length="10.27" shape="7358.55,8716.68 7358.94,8719.47 7360.80,8721.24 7362.65,8723.03 7363.03,8725.89"/>
        <lane id=":1071305096-AddedOffRampNode_0_2" index="2" disallow="tram rail_urban rail rail_electric rail_fast ship" speed="22.22" length="10.27" shape="7358.55,8716.68 7358.50,8719.19 7359.23,8720.93 7359.96,8722.68 7359.91,8725.19"/>
        <lane id=":1071305096-AddedOffRampNode_0_3" index="3" disallow="tram rail_urban rail rail_electric rail_fast ship" speed="22.22" length="10.27" shape="7358.55,8716.68 7356.79,8724.48"/>
    </edge>
    <edge id=":1071305097-AddedOnRampNode_0" function="internal">
        <lane id=":1071305097-AddedOnRampNode_0_0" index="0" disallow="tram rail_urban rail rail_electric rail_fast ship" speed="22.22" length="7.87" shape="7388.62,8704.54 7396.49,8704.60"/>
        <lane id=":1071305097-AddedOnRampNode_0_1" index="1" disallow="tram rail_urban rail rail_electric rail_fast ship" speed="22.22" length="7.87" shape="7388.60,8707.74 7396.46,8707.80"/>
    </edge>
    <edge id=":1072921795#2-AddedOffRampNode_0" function="internal">
        <lane id=":1072921795#2-AddedOffRampNode_0_0" index="0" disallow="tram rail_urban rail rail_electric rail_fast ship" speed="22.22" length="8.40" shape="10514.84,6676.29 10512.36,6676.71 10510.79,6677.76 10509.22,6678.81 10506.74,6679.23"/>
        <lane id=":1072921795#2-AddedOffRampNode_0_1" index="1" disallow="tram rail_urban rail rail_electric rail_fast ship" speed="22.22" length="8.40" shape="10514.84,6676.29 10506.84,6676.03"/>
    </edge>
    <edge id=":1073361867-AddedOffRampNode_0" function="internal">
        <lane id=":1073361867-AddedOffRampNode_0_0" index="0" disallow="tram rail_urban rail rail_electric rail_fast ship" speed="27.78" length="8.40" shape="8680.25,7373.80 8680.68,7376.28 8681.73,7377.85 8682.78,7379.42 8683.21,7381.90"/>
        <lane id=":1073361867-AddedOffRampNode_0_1" index="1" disallow="tram rail_urban rail rail_electric rail_fast ship" speed="27.78" length="8.40" shape="8680.25,7373.80 8680.01,7381.80"/>
    </edge>
    <edge id=":1084226879#1-AddedOffRampNode_0" function="internal">
        <lane id=":1084226879#1-AddedOffRampNode_0_0" index="0" disallow="tram rail_urban rail rail_electric rail_fast ship" speed="22.22" length="8.40" shape="8132.56,8284.34 8133.01,8286.81 8134.08,8288.37 8135.15,8289.93 8135.60,8292.40"/>
        <lane id=":1084226879#1-AddedOffRampNode_0_1" index="1" disallow="tram rail_urban rail rail_electric rail_fast ship" speed="22.22" length="8.40" shape="8132.56,8284.34 8132.40,8292.34"/>
    </edge>
    <edge id=":1097501356-AddedOnRampNode_0" function="internal">
        <lane id=":1097501356-AddedOnRampNode_0_0" index="0" disallow="pedestrian bicycle tram rail_urban rail rail_electric rail_fast ship" speed="27.78" length="8.00" shape="7495.28,6581.53 7487.28,6581.34"/>
        <lane id=":1097501356-AddedOnRampNode_0_1" index="1" disallow="pedestrian bicycle tram rail_urban rail rail_electric rail_fast ship" speed="27.78" length="8.00" shape="7495.35,6578.34 7487.35,6578.15"/>
    </edge>
    <edge id=":1097501357#0-AddedOnRampNode_0" function="internal">
        <lane id=":1097501357#0-AddedOnRampNode_0_0" index="0" disallow="tram rail_urban rail rail_electric rail_fast ship" speed="27.78" length="8.00" shape="8844.82,7525.04 8852.82,7525.06"/>
        <lane id=":1097501357#0-AddedOnRampNode_0_1" index="1" disallow="tram rail_urban rail rail_electric rail_fast ship" speed="27.78" length="8.00" shape="8844.81,7528.24 8852.81,7528.26"/>
    </edge>
    <edge id=":1107893547#1-AddedOffRampNode_0" function="internal">
        <lane id=":1107893547#1-AddedOffRampNode_0_0" index="0" allow="private emergency authority army vip passenger hov taxi bus coach delivery truck trailer motorcycle evehicle custom1 custom2" speed="39.44" length="8.20" shape="7420.18,8375.06 7420.11,8377.58 7420.84,8379.32 7421.56,8381.07 7421.49,8383.58"/>
        <lane id=":1107893547#1-AddedOffRampNode_0_1" index="1" allow="private emergency authority army vip passenger hov taxi bus coach delivery truck trailer motorcycle evehicle custom1 custom2" speed="39.44" length="8.20" shape="7420.18,8375.06 7418.37,8382.86"/>
        <lane id=":1107893547#1-AddedOffRampNode_0_2" index="2" allow="private emergency authority army vip passenger hov taxi bus coach delivery truck trailer motorcycle evehicle custom1 custom2" speed="39.44" length="8.20" shape="7417.07,8374.34 7415.25,8382.13"/>
        <lane id=":1107893547#1-AddedOffRampNode_0_3" index="3" allow="private emergency authority army vip passenger hov taxi bus coach delivery truck trailer motorcycle evehicle custom1 custom2" speed="39.44" length="8.20" shape="7413.95,8373.61 7412.14,8381.40"/>
    </edge>