<?xml version="1.0" encoding="UTF-8"?>

<!-- generated on 11/29/22 03:46:04 by Eclipse SUMO duarouter Version 1.8.0
<configuration xmlns:xsi="http://www.w3.org/2001/XMLSchema-instance" xsi:noNamespaceSchemaLocation="http://sumo.dlr.de/xsd/duarouterConfiguration.xsd">

    <input>
        <net-file value="bj.net.xml"/>
        <route-files value="trips.trips.xml"/>
    </input>

    <output>
        <output-file value="bj.rou.xml"/>
        <alternatives-output value="bj.rou.alt.xml"/>
    </output>

    <time>
        <begin value="0"/>
        <end value="1000"/>
    </time>

    <report>
        <no-warnings value="true"/>
        <ignore-errors value="true"/>
        <no-step-log value="true"/>
    </report>

</configuration>
-->

<routes xmlns:xsi="http://www.w3.org/2001/XMLSchema-instance" xsi:noNamespaceSchemaLocation="http://sumo.dlr.de/xsd/routes_file.xsd">
    <vehicle id="0" depart="0.00">
        <route edges="176576460#1-AddedOffRampEdge 176576460#2 176576460#3-AddedOnRampEdge 176576460#3 121399399 121399258 170628836 739539780#1-AddedOnRampEdge 739539780#1 739539780#2 121399269 242787708#0 242787708#1 242787708#2 242787708#3 242787708#4 242787708#5 1056891574#0 175210689 172179671#0 172179671#1 1073361861#0 1073361861#1 1073361861#2 1073361860#0 1073361860#1 121399200 175210705#0 175210705#1 -175186697#1"/>
    </vehicle>
    <vehicle id="3" depart="3.00">
        <route edges="55883848 -42412528#4 -42412528#2"/>
    </vehicle>
    <vehicle id="4" depart="4.00">
        <route edges="159782826#4 42489351#0 159782781#3 159782781#4 42356971#1 42356971#2 42356971#4 42356971#5 1064896776#0 1064896776#1 1064896776#2 1064896776#3 159782797 159782791#0 159782791#2 -175425300#4 -175425300#3 -175425300#2"/>
    </vehicle>
    <vehicle id="5" depart="5.00">
        <route edges="1066708146 175210675#0 175210675#1 251329005 227135616#0 227135616#1 1059706296 251329008#0 251329008#1 229610041#0 229610041#1 229610041#2 229610041#3 1108534772 121399394 -1015777113 121399341 169447018#1"/>
    </vehicle>
    <vehicle id="7" depart="7.00">
        <route edges="195255411#3 195255411#4 195255411#5 13740601#0 13740601#1 13740601#2 13740601#3 13740601#4 97291935#0 97291935#1 97291935#2 175210710#0 175210710#1 175210710#2 175210710#3 175210710#4 1066708139 121399200 175210705#0 175210705#1 175210705#2 175210705#3 1066708138#1 1066708138#2 1094958679#2 121399305 1107893547#0 1107893547#1 1107893547#1-AddedOffRampEdge 172180974#0"/>
    </vehicle>
    <vehicle id="8" depart="8.00">
        <route edges="1072921795#1 1072921795#2 1072921795#2-AddedOffRampEdge 42660452 220917825#0 220917825#1 220917825#2-AddedOnRampEdge 220917825#2 220917825#2-AddedOffRampEdge 220917824#0 220917824#1-AddedOnRampEdge 220917824#1 42657738 220917827#4 121399438#1 121399438#2 121399438#3 229610044#1-AddedOnRampEdge 229610044#1 229610044#2 229610044#3 1073361867 1073361867-AddedOffRampEdge 121399476 1097501358 1055899084#0 1055899084#1 1055899084#2 1055899084#3 24691220#0 24691220#1 24691220#2 24691220#3-AddedOnRampEdge 24691220#3 24691220#4 24691220#5 97291935#0 97291935#1 97291935#2 175210710#0 175210710#1 175210710#2 175210710#3"/>
    </vehicle>
    <vehicle id="9" depart="9.00">
        <route edges="29201277#0 29201277#1-AddedOnRampEdge 29201277#1 176576450-AddedOnRampEdge 176576450 122346048 176576456#1 176576456#1-AddedOffRampEdge 159783523 159783517 159783524#0 159783524#1 159783524#2 159783524#3 1092335196#0 1092335196#1 1092335196#2 159782782#0 159782782#1 159782782#2 -159782812#0 -159782794#0"/>
    </vehicle>
    <vehicle id="10" depart="10.00">
        <route edges="29201273#4 176576460#0-AddedOnRampEdge 176576460#0 176576460#0-AddedOffRampEdge 176576460#1 176576460#1-AddedOffRampEdge 176576460#2 176576460#3-AddedOnRampEdge 176576460#3 121399399 121399258 170628836 739539780#1-AddedOnRampEdge 739539780#1 739539780#2 121399269 242787708#0"/>
    </vehicle>
    <vehicle id="11" depart="11.00">
        <route edges="128690876#9 128690876#10 128690876#11 13740601#4 97291935#0 97291935#1 97291935#2 159783524#3 159783524#4 159783524#5 159783524#5-AddedOffRampEdge 159783524#6 159783524#7 159783524#8 159794827#0 159783237 1015784057#0 1015784057#1 1015784057#2 1097501357#0-AddedOnRampEdge 1097501357#0 1097501357#1 1064896774#0 1064896774#1 1064896774#2 1064896774#3 23892248#2 23892248#3 23892248#5 -723298104#2 -989032268"/>
    </vehicle>
    <vehicle id="12" depart="12.00">
        <route edges="776684879#1 776684879#2 776684879#3 776684879#4 776684879#5 776684879#6 776684879#7 776684879#8 776684879#9 776684879#10 776684879#11 889124609#2 889124609#3 889124609#4 251325072#4 251325072#5 1064896775#0 1064896775#1 1064896775#2 1064896775#3 1064896775#4 175425296#1 175425296#2 175425296#3 175425296#3-AddedOffRampEdge 1055768491 1117815277 60051358#0 128690923 128690909#2 128690881 128690877#1-AddedOnRampEdge"/>
    </vehicle>
    <vehicle id="13" depart="13.00">
        <route edges="-42412632#0 -1066708144 1066708146 175210675#0 175210675#1 251329005 227135623#0 227135623#1 227135623#1-AddedOffRampEdge 227135621#0 227135621#1 227135621#2 159783237 1015784057#0 1015784057#1 1015784057#2 1097501357#0-AddedOnRampEdge 1097501357#0 1097501357#1 1064896774#0 1064896774#1 1064896774#2 957466003#1 957466003#2 957466006 957466005#0 957466005#1 -42412751#3 -42412751#2"/>
    </vehicle>
    <vehicle id="14" depart="14.00">
        <route edges="42412657#3 42412657#4 42412657#5 42412657#6 42412657#7 42412657#8 172179671#0 172179671#1 227135623#0 227135623#1 227135623#1-AddedOffRampEdge 227135621#0 227135621#1 227135621#2 159783237 1015784057#0 1015784057#1 1015784057#2 1097501357#0-AddedOnRampEdge 1097501357#0 1097501357#1 1064896774#0 1064896774#1 1064896774#2 1064896774#3 1064896774#4 1064896774#5 1064896774#6 1064896774#7 1064896774#8 1073361872 175425296#0 175425296#1 175425296#2 175425296#3 175425296#3-AddedOffRampEdge 1055768491 1117815277 60051358#0 128690923 128690909#2 128690881 128690877#1-AddedOnRampEdge 128690877#1 176576446#0 170628856 176576441#3 176576422#0 176576422#1-AddedOnRampEdge"/>
    </vehicle>
    <vehicle id="15" depart="15.00">
        <route edges="29201273#4 176576460#0-AddedOnRampEdge 176576460#0 176576460#0-AddedOffRampEdge 121399265 176576462#2-AddedOnRampEdge 176576462#2 176576462#2-AddedOffRampEdge 128690900#0 128690900#1 55885443-AddedOnRampEdge 55885443 55885444#0 121399455 121399170#1-AddedOnRampEdge 121399170#1 121399170#1-AddedOffRampEdge 121399250 121399211#1 55885440 1071305097-AddedOnRampEdge 1071305097 55885442#0 55885442#1-AddedOnRampEdge 55885442#1 55885442#2 55885442#3 55885442#4 128690891 176576450-AddedOnRampEdge 176576450 122346048 176576456#1 176576456#1-AddedOffRampEdge 159783523 159783517 159783524#0 159783524#1 159783524#2 159783524#3 1092335196#0 1092335196#1 1092335196#2 159782782#0 159782782#1 159782782#2 -159782812#0 159782794#1 159782794#2 4845102 -248637756#2 248637756#2"/>
    </vehicle>
    <vehicle id="16" depart="16.00">
        <route edges="170628888 170628889#0 170628889#1-AddedOnRampEdge 170628889#1 170628889#2 170628889#3 727275044 727275044-AddedOffRampEdge 128690926 60064579#3 1055624801 60051359 60051359-AddedOffRampEdge 159791613#0 159791613#1 159791613#2 1073361871 1073361872 237581600#0 237581600#1 237581600#2 237581600#4 237581600#5 1064896776#1 1064896776#2 1064896776#3 159782797 159782791#0 159782791#2 175425300#5 836784983#4 836784983#5 889124605"/>
    </vehicle>
    <vehicle id="17" depart="17.00">
        <route edges="13740601#1 13740601#2 13740601#3 13740601#4 97291935#0 97291935#1 97291935#2 175210710#0 175210710#1 175210710#2 175210710#3 175210710#4 1066708139 121399200 175210705#0 175210705#1 -175186697#1 -175186697#0 175186697#0"/>
    </vehicle>
    <vehicle id="18" depart="18.00">
        <route edges="42356971#2 42356971#4 42356971#5 1064896775#0 1064896775#1 1064896775#2 1064896775#3 1064896775#4 1064896775#5 1064896772 159791634#0 159791634#1 159791634#2 159791634#3 159791634#4 159791634#5 159791634#6 159791634#7 159791634#8 251327824#0 251327824#1 251327824#1-AddedOffRampEdge 251327824#2 251327824#3 251327824#4 22759944 159783239#0 159783239#1 159783239#2 159783239#3-AddedOnRampEdge 159783239#3 159783239#4 1073361866#0 1073361866#1 251329004 175210694#0 175210694#1 172179666#0 172179666#1 172179666#2 172179666#3 172179666#4 1094958679#0 1094958679#2 121399305 1107893547#0 121399432 739539782#1-AddedOnRampEdge 739539782#1 29201277#1-AddedOnRampEdge 29201277#1 176576450-AddedOnRampEdge 176576450 176576453#1"/>
    </vehicle>
    <vehicle id="19" depart="19.00">
        <route edges="42412801#6 42412801#7 229787592 42412798#2-AddedOnRampEdge 42412798#2 42412798#3-AddedOnRampEdge 42412798#3 42412798#4 42412798#5 759035540 1058164188 23892248#0 23892248#1 23892248#2 159791634#5 159791634#6 159791634#7 159791634#8 251327824#0 251327824#1 251327824#1-AddedOffRampEdge 251327824#2 251327824#3 251327824#4 22759944 159783239#0 159783239#1 159783239#2 159783239#3-AddedOnRampEdge 159783239#3 159783239#4 1073361866#0 1073361866#1 251329005 227135616#0 175210696#2 175210696#4"/>
    </vehicle>
    <vehicle id="20" depart="20.00">
        <route edges="23892248#5 -23892248#5 -23892248#3 159791634#5 159791634#6 159791634#7 159791634#8 251327824#0 251327824#1 251327824#1-AddedOffRampEdge 251327824#2 251327824#3 251327824#4 24691220#0 24691220#1 24691220#2 24691220#3-AddedOnRampEdge 24691220#3 24691220#4 159782782#0 159782782#1 159782782#2 -159782812#0 159782794#1 159782794#2 4845102 -248637756#2 -248637757"/>
    </vehicle>
    <vehicle id="21" depart="21.00">
        <route edges="1073361867-AddedOffRampEdge 121399476 1097501358 1055899084#0 1055899084#1 1055899084#2 1015784057#0 1015784057#1 1015784057#2 1097501357#0-AddedOnRampEdge 1097501357#0 1097501357#1 1064896774#0 1064896774#1 1064896774#2 1064896774#3 1064896774#4 1064896774#5 1064896774#6 1064896774#7 1064896774#8 159783728#0 159783728#1 723605568 1073361870#0 1073361870#1 121399299#0 121399299#1"/>
    </vehicle>
    <vehicle id="22" depart="22.00">
        <route edges="-301932469#1 -301932469#0 -42412751#1 121399419#6 121399320 128690876#0 128690876#1 128690876#2 128690876#3 128690876#4 251327824#4 22759944 159783239#0 159783239#1 159783239#2 159783239#3-AddedOnRampEdge 159783239#3 159783239#4 1073361866#0 1073361866#1 251329004 175210694#0 175210694#1 172179666#0 172179666#1 172179666#2 172179666#3 172179666#4 1094958679#0"/>
    </vehicle>
    <vehicle id="23" depart="23.00">
        <route edges="-42489351#0 -159782826#4 -159782826#3 -159782826#2 889124604#8 195255411#0 195255411#1 195255411#2 195255411#3 195255411#4 195255411#5 13740601#0 13740601#1 13740601#2 13740601#3 13740601#4 97291935#0 97291935#1 97291935#2 175210710#0 175210710#1 175210710#2 175210710#3 175210710#4 1066708139 121399200 175210705#0 175210705#1 175210705#2 175210705#3 1066708138#1 1066708138#2 1094958679#2 121399305 1107893547#0 1107893547#1 1107893547#1-AddedOffRampEdge 121399304 1071305096 1071305096-AddedOffRampEdge 121399172#0 121399242"/>
    </vehicle>
    <vehicle id="24" depart="24.00">
        <route edges="176576459#3 128690878 128690893 128690886 128690877#0 128690877#1-AddedOnRampEdge 128690877#1 128690895 176576441#0 26428252#0 26428252#2 26428252#3 -568435470#2 -568435470#1 -568435470#0 1055768490#2 159783332#3 128690911 170261267#2 170261267#3 128690932#1-AddedOnRampEdge 128690932#1 128690932#2 128690932#3 128690932#4"/>
    </vehicle>
    <vehicle id="25" depart="25.00">
        <route edges="128690932#3 128690932#4 128690932#5 128690932#6 159783466 29201273#4 176576460#0-AddedOnRampEdge 176576460#0 176576460#0-AddedOffRampEdge 176576460#1 176576460#1-AddedOffRampEdge 176576460#2 176576460#3-AddedOnRampEdge 176576460#3 121399399 121399258 170628836 739539780#1-AddedOnRampEdge 739539780#1 739539780#2 121399269 242787708#0 242787708#1 242787708#2 242787708#3 242787708#4 242787708#5 1056891574#0 175210689 172179671#0 172179671#1 1073361865 1066708140#0 1066708140#1"/>
    </vehicle>
    <vehicle id="26" depart="26.00">
        <route edges="121399181#1 242787708#0 242787708#1 242787708#2 242787708#3 242787708#4 242787708#5 1056891574#0 175210689 172179671#0 172179671#1 227135623#0 227135623#1 227135623#1-AddedOffRampEdge 227135621#0 227135621#1 227135621#2 159783237 1015784057#0 1015784057#1 1015784057#2 1097501357#0-AddedOnRampEdge 1097501357#0 1097501357#1 1064896774#0 1064896774#1 1064896774#2 1064896774#3 23892248#2 23892248#3 23892248#5 -723298104#2 -723298104#1 723298104#1"/>
    </vehicle>
    <vehicle id="27" depart="27.00">
        <route edges="195255411#2 159782781#1 159782781#2 159782781#3 176576422#4 176576422#5"/>
    </vehicle>
    <vehicle id="28" depart="28.00">
        <route edges="1055899084#0 1055899084#1 1055899084#2 1055899084#3 24691220#0 24691220#1 24691220#2 24691220#3-AddedOnRampEdge 24691220#3 24691220#4 159782782#0 159782782#1 159782782#2 -159782812#0 159782794#1 159782794#2 4845102 -248637756#2 248637756#2"/>
    </vehicle>
    <vehicle id="29" depart="29.00">
        <route edges="1055624801 13740601#0 13740601#1 13740601#2"/>
    </vehicle>
    <vehicle id="30" depart="30.00">
        <route edges="957466005#3 957466012#0 957466012#1 42412798#5 759035540 1058164188 23892248#0 23892248#1 1064896774#4 1064896774#5 1064896774#6 1064896774#7 1064896774#8 1073361872 175425296#0 175425296#1 175425296#2 175425296#3 175425296#3-AddedOffRampEdge 1055768491 1055768489 159782781#0 159782781#1 159782781#2 159782781#3 159782781#4 195255411#0 195255411#1"/>
    </vehicle>
    <vehicle id="31" depart="31.00">
        <route edges="172180965#1 172180965#1-AddedOffRampEdge 121399449 55885442#1-AddedOnRampEdge 55885442#1 55885442#2 55885442#3 55885442#4 55885442#5 170628828#0 170628828#1 170628828#2 170628828#3 1084226865 170628849 227135615#0 227135615#0-AddedOffRampEdge 227135615#1 227135615#2 175210672 1066708146 175210675#0 175210675#1 251329005 227135616#0 227135616#1 1059706296 251329008#0 251329008#1 229610041#0 229610041#1"/>
    </vehicle>
    <vehicle id="33" depart="33.00">
        <route edges="1073361868#1 1073361868#2 1115951325#0 1115951325#1 723605569#1 175425322#0 175425322#1 175425322#2 -175425322#2"/>
    </vehicle>
    <vehicle id="34" depart="34.00">
        <route edges="121399419#2 121399419#3-AddedOnRampEdge 121399419#3 42655136#1 42655140#4 42655140#5 42655140#6 957466005#8 957466005#9 957466005#10 220917827#1 42658821 220917824#1-AddedOnRampEdge 220917824#1 42657738 220917827#4 220917827#6 121399225"/>
    </vehicle>
    <vehicle id="35" depart="35.00">
        <route edges="1066708136 -1066708144 1066708146 175210675#0 175210675#1 251329005 227135623#0 227135623#1 227135623#1-AddedOffRampEdge 227135621#0 227135621#1 227135621#2 159783237 1015784057#0 1015784057#1 1015784057#2 1097501357#0-AddedOnRampEdge 1097501357#0 1097501357#1 1064896774#0 1064896774#1 1064896774#2 1064896774#3 1064896774#4 1064896774#5 1064896774#6 1064896774#7 1064896774#8 159783728#0 159783728#1 723605568"/>
    </vehicle>
    <vehicle id="36" depart="36.00">
        <route edges="42655140#6 957466005#8 957466005#9 957466005#10 220917827#1 42658821 220917824#1-AddedOnRampEdge 220917824#1 42657738 220917827#4 121399438#1 121399438#2 121399438#3 229610044#1-AddedOnRampEdge 229610044#1 229610044#2 229610044#3 1073361867 1073361867-AddedOffRampEdge 121399476 1097501358 1055899084#0 1055899084#1 1055899084#2 1055899084#3 24691220#0 159791616 159783524#8 159794827#0 159794827#1 159794827#2 159794827#3 227135624 121399473 121399479#0-AddedOnRampEdge 121399479#0 -42412528#6 1055899089#1 1055899089#2 121399410#0 121399410#1 121399410#2 121399424"/>
    </vehicle>
    <vehicle id="37" depart="37.00">
        <route edges="195257952#5 170261281#0 128690880 169616152#3-AddedOnRampEdge 169616152#3 128690884 727275046 170261269#0 170261269#1 128690921-AddedOnRampEdge 128690921 128690929 60064579#1-AddedOnRampEdge 60064579#1 60064579#1-AddedOffRampEdge 60064579#2 60064579#3 1055624801 60051359 60051359-AddedOffRampEdge 159791613#0 159791613#1 159791613#2 1073361871 1073361872 237581600#0 237581600#1 237581600#2 237581600#4 237581600#5 1064896776#1 1064896776#2 1064896776#3 159782797 159782791#0 159782791#2 159782791#3 159782791#4"/>
    </vehicle>
    <vehicle id="39" depart="39.00">
        <route edges="121399180#1 1084226878#0 170628869 175210669#1-AddedOnRampEdge 175210669#1 175210669#2 175210669#3 176576456#0 176576456#1 176576456#1-AddedOffRampEdge 159783523 159783517 159783524#0 159783524#1 159783524#2 159783524#3 1092335196#0 1092335196#1 1092335196#2 159782782#0 159782782#1 159782782#2 159782782#3 159782782#4 159782782#5 159782782#6 159782782#7 1117815277"/>
    </vehicle>
    <vehicle id="41" depart="41.00">
        <route edges="175210696#2 175210696#4 175210696#5 175210696#6 175210696#7 175210696#8 159791619 159791637#0 159791637#1 159791637#2 1084226867#3 1097501357#0-AddedOnRampEdge 1097501357#0 1097501357#1 1064896774#0 1064896774#1 1064896774#2 1064896774#3 1064896774#4 1064896774#5 1064896774#6 1064896774#7 1064896774#8 1073361872 175425296#0 175425296#1 175425296#2 175425296#3 175425296#3-AddedOffRampEdge 1055768488#0 1055768488#1 1055768490#0 1055768490#1 1055768490#2 159783332#3 128690911 170261267#2 170261267#3 128690932#1-AddedOnRampEdge 128690932#1 128690932#2 128690932#3 128690932#4 128690932#5 128690932#6 159783466 29201273#4 176576460#0-AddedOnRampEdge 176576460#0 176576460#0-AddedOffRampEdge 176576460#1 176576460#1-AddedOffRampEdge 176576460#2 176576460#3-AddedOnRampEdge 176576460#3 176576460#4 55885564"/>
    </vehicle>
    <vehicle id="42" depart="42.00">
        <route edges="159782782#5 159782782#6 159782782#7 13740601#0 13740601#1 13740601#2 13740601#3 13740601#4 97291935#0 97291935#1 97291935#2 175210710#0 175210710#1 175210710#2 175210710#3 175210710#4 1066708139 121399200 227135615#2 175210672 -1073361862 1073361860#0"/>
    </vehicle>
    <vehicle id="44" depart="44.00">
        <route edges="-42412528#5 -42412528#4 159794831#1 159794831#2 159794831#3 -1059706295 -227135616#1 -227135616#0 227135623#0 227135623#1 227135623#1-AddedOffRampEdge 227135621#0 227135621#1 227135621#2 159783237 1015784057#0 1015784057#1 1015784057#2 1097501357#0-AddedOnRampEdge 1097501357#0 1097501357#1 1064896774#0 1064896774#1 1064896774#2 1064896774#3 1064896774#4 1064896774#5 1064896774#6 1064896774#7 1064896774#8 1073361872 237581600#0 237581600#1 -251327823#2 -251327823#1 -251327823#0"/>
    </vehicle>
    <vehicle id="45" depart="45.00">
        <route edges="-42655140#5 -42655140#4 -42655136#1 -42655136#0 229610044#2 229610044#3 1073361867 1073361867-AddedOffRampEdge 121399476 1097501358 1055899084#0 1055899084#1 1055899084#2 1055899084#3 24691220#0 24691220#1 24691220#2 24691220#3-AddedOnRampEdge 24691220#3 24691220#4 24691220#5 97291935#0 97291935#1 97291935#2 175210710#0 175210710#1 175210710#2 175210710#3 175210710#4 1066708139 121399200 175210705#0 175210705#1 175210705#2 175210705#3 1066708138#1 1066708138#2 1094958679#2 121399305 1107893547#0 121399432 739539782#1-AddedOnRampEdge 739539782#1 29201277#1-AddedOnRampEdge 29201277#1 176576450-AddedOnRampEdge 176576450 176576453#1 176576453#1-AddedOffRampEdge 176576459#1"/>
    </vehicle>
    <vehicle id="46" depart="46.00">
        <route edges="26812185#2 229610031-AddedOnRampEdge 229610031 171981477-AddedOnRampEdge 171981477 171981477-AddedOffRampEdge 121399275 121399458#0 121399458#1 121399472 229610044#0 229610044#1-AddedOnRampEdge 229610044#1 229610044#2 229610044#3 1073361867 1073361867-AddedOffRampEdge 121399476 1097501358 1055899084#0 1055899084#1 1055899084#2 1055899084#3 24691220#0 159791616 159791642#0 159791642#1 159791642#2 1084226869#3 159783239#3-AddedOnRampEdge 159783239#3 159783239#4 1073361866#0 1073361861#1 1073361861#2 1073361860#0 1073361860#1 121399180#0 121399180#1 1084226878#0 170628869 175210669#1-AddedOnRampEdge 175210669#1 175210669#2 175210669#3 176576456#0 159783522 159783522-AddedOffRampEdge 159783338#0"/>
    </vehicle>
    <vehicle id="47" depart="47.00">
        <route edges="-261257458#3 261257458#3 -261253839#1 -261253839#0 121399336 220917825#2-AddedOnRampEdge 220917825#2 220917825#2-AddedOffRampEdge 220917824#0 220917824#1-AddedOnRampEdge 220917824#1 220917824#2 171981478-AddedOnRampEdge 171981478 171981478-AddedOffRampEdge 121399270 121399244#0 121399410#5 121399340 121399247#0 1055899085#1 121399328 171981477-AddedOnRampEdge 171981477 171981477-AddedOffRampEdge 121399275 121399458#0 121399458#1 121399472 145656886#1"/>
    </vehicle>
    <vehicle id="48" depart="48.00">
        <route edges="957466009#4 957466009#5 957466011 23892248#0 23892248#1 23892248#2 159791634#5 159791634#6 159791634#7 159791634#8 251327824#0 251327824#1 251327824#1-AddedOffRampEdge 251327824#2 251327824#3 251327824#4 24691220#0 24691220#1 24691220#2 24691220#3-AddedOnRampEdge 24691220#3 24691220#4 24691220#5 24691220#6 24691220#7 24691220#8 159783519 159783520 170628889#0 170628889#1-AddedOnRampEdge 170628889#1 170628889#2 170628889#3"/>
    </vehicle>
    <vehicle id="49" depart="49.00">
        <route edges="889124604#8 42356971#1 42356971#2 42356971#4 42356971#5 1064896775#0 1064896775#1 1064896775#2 1064896775#3 1064896775#4 1064896775#5 1064896772 159791634#0 159791634#1 159791634#2 159791634#3 159791634#4 159791634#5 957466003#0 957466003#1 957466003#2 957466006 957466005#0 957466005#1 957466005#2 957466005#3 957466005#4 -42655136#6 -42655136#4 42655136#4"/>
    </vehicle>
    <vehicle id="50" depart="50.00">
        <route edges="-159782794#4 159782794#4 159782794#5 -248637754#0 248637753#0 248637753#1"/>
    </vehicle>
    <vehicle id="51" depart="51.00">
        <route edges="229610031-AddedOnRampEdge 229610031 171981477-AddedOnRampEdge 171981477 171981477-AddedOffRampEdge 121399275 121399458#0 121399458#1 121399472 229610044#0 229610044#1-AddedOnRampEdge 229610044#1 229610044#2 229610044#3 1073361867 1073361867-AddedOffRampEdge 121399476 1097501358 1055899084#0 1055899084#1 1055899084#2 1055899084#3 24691220#0 159791616 159791642#0 159791642#1 159791642#2 1084226869#3 159783239#3-AddedOnRampEdge 159783239#3 159783239#4 1073361866#0 1073361866#1 251329004 175210694#0 175210694#1 172179666#0 172179666#1 172179666#2 172179666#3"/>
    </vehicle>
    <vehicle id="52" depart="52.00">
        <route edges="121399181#1 242787708#0 242787708#1 242787708#2 242787708#3 242787708#4 242787708#5 1056891574#0 175210689 172179671#0 172179671#1 227135623#0 227135623#1 227135623#1-AddedOffRampEdge 227135621#0 227135621#1 227135621#2 159783237 1015784057#0 1015784057#1 1015784057#2 1097501357#0-AddedOnRampEdge 1097501357#0 1097501357#1 1064896774#0 1064896774#1 1064896774#2 1064896774#3 1064896774#4 1064896774#5 1064896774#6 1064896774#7 1064896774#8 1073361872 175425296#0 175425296#1 175425296#2 175425296#3 175425296#3-AddedOffRampEdge 1055768491 1055768489 159782781#0 159782781#1 159782781#2 195255411#2"/>
    </vehicle>
    <vehicle id="53" depart="53.00">
        <route edges="-439956432#0 248637750#3 248637750#4 -159782814#2 -159782814#1 -159782814#0 159782812#0 13740601#2 13740601#3 128690876#12 128690876#13 128690876#14 128690876#15 159783521"/>
    </vehicle>
    <vehicle id="54" depart="54.00">
        <route edges="159783524#5 159783524#5-AddedOffRampEdge 159783524#6 159783524#7 159783524#8 159783239#0 159783239#1 159783239#2 159783239#3-AddedOnRampEdge 159783239#3 159783239#4 1073361866#0 1073361866#1 251329004 175210694#0 175210694#1 172179666#0 172179666#1 172179666#2 172179666#3 172179666#4 1094958679#0 1094958679#2 121399305 1107893547#0 121399432 739539782#1-AddedOnRampEdge"/>
    </vehicle>
    <vehicle id="55" depart="55.00">
        <route edges="42655140#5 42655140#6 957466005#8 957466005#9 957466005#10 220917827#1 42658821 220917824#1-AddedOnRampEdge 220917824#1 220917824#2 171981478-AddedOnRampEdge 171981478 171981478-AddedOffRampEdge 171981479 171981479-AddedOffRampEdge 229610033 159794800#0-AddedOnRampEdge 159794800#0 27262196 27262137#1-AddedOnRampEdge 27262137#1 27262137#1-AddedOffRampEdge 121399396#1 26812167#3-AddedOnRampEdge 26812167#3 121399154 121399149 1094958680 1107893547#0 1107893547#1 1107893547#1-AddedOffRampEdge 121399304 1071305096 1071305096-AddedOffRampEdge 121399172#0 121399242 128690900#1 55885443-AddedOnRampEdge 55885443 55885444#0 121399455 121399170#1-AddedOnRampEdge 121399170#1 121399170#1-AddedOffRampEdge 121399181#0 121399181#1"/>
    </vehicle>
    <vehicle id="56" depart="56.00">
        <route edges="159791645#6 159791645#7 159791645#8 159791645#9 1064896775#4 1064896775#5 1064896772 159791634#0 159791634#1 159791634#2 159791634#3 159791634#4 159791634#5 159791634#6 159791634#7 159791634#8 251327824#0 251327824#1 251327824#1-AddedOffRampEdge 251327824#2 251327824#3 251327824#4 22759944 159794827#0 159794827#1 159794827#2 159794827#3 227135624 121399473 121399479#0-AddedOnRampEdge 121399479#0 121399479#1 1055899088 1055899086#0 1055899086#0-AddedOffRampEdge 1055899086#1 42412030 1055899085#0 1055899085#1 121399328 171981477-AddedOnRampEdge 171981477 171981477-AddedOffRampEdge 1056891572 171981481 1056891569-AddedOnRampEdge 1056891569"/>
    </vehicle>
    <vehicle id="57" depart="57.00">
        <route edges="568435471#0 568435471#1 -26428252#0 176576441#1 176576441#2 176576441#3 176576422#0 176576422#1-AddedOnRampEdge 176576422#1 176576422#2 176576422#3 159782781#4 42356971#1 42356971#2 42356971#4 42356971#5 1064896776#0 1064896776#1 1064896776#2 1064896776#3 159782797 159782791#0 159782791#2 159782791#3 159782791#4 159782791#5 159782791#6 1072921794 1072921795#0 1072921795#1 1072921795#2 1072921795#2-AddedOffRampEdge 42660452 220917825#0 42660450"/>
    </vehicle>
    <vehicle id="58" depart="58.00">
        <route edges="121399340 121399247#0 1055899085#1 121399328 171981477-AddedOnRampEdge 171981477 171981477-AddedOffRampEdge 121399275 121399458#0 121399458#1 121399472 229610044#0 229610044#1-AddedOnRampEdge 229610044#1 229610044#2 229610044#3 1073361867 1073361867-AddedOffRampEdge 121399476 1097501358 1055899084#0 1055899084#1 1055899084#2 1055899084#3 24691220#0 24691220#1 24691220#2 24691220#3-AddedOnRampEdge 24691220#3 24691220#4 159782782#0 159782782#1 159782782#2 159782782#3 159782782#4 159782782#5 159782782#6 159782782#7 1055768489 1055768490#0 1055768490#1 1055768490#2 159783332#3 128690911 170261267#2 170261267#3 128690932#1-AddedOnRampEdge 128690932#1 128690932#2 128690932#3 128690932#4 128690932#5 128690932#6 159783466 29201273#4 176576460#0-AddedOnRampEdge 176576460#0 176576460#0-AddedOffRampEdge 121399265 176576462#2-AddedOnRampEdge"/>
    </vehicle>
    <vehicle id="59" depart="59.00">
        <route edges="176576421#1-AddedOffRampEdge 176576435 176576422#1-AddedOnRampEdge 176576422#1 176576422#2 176576422#3 159782781#4 42356971#1 42356971#2 42356971#4 42356971#5 1064896776#0 1064896776#1 1064896776#2 1064896776#3 159782797 159782791#0 159782791#2 -175425300#4 -175425300#3 -175425300#2 -889124603"/>
    </vehicle>
    <vehicle id="60" depart="60.00">
        <route edges="261253839#3 159791645#3 159791645#4 159791645#5 -175425322#0 1064896773#0 1064896773#1 175425296#0 1064896775#5 1064896772 159791634#0 159791634#1 159791634#2 159791634#3 159791634#4 159791634#5 159791634#6 159791634#7 159791634#8 251327824#0 251327824#1 251327824#1-AddedOffRampEdge 251327824#2 251327824#3 251327824#4 22759944 159783239#0 159783239#1 159783239#2 159783239#3-AddedOnRampEdge 159783239#3 159783239#4 1073361866#0 1073361866#1 251329004 175210694#0 175210694#1 175210690 1056891574#0 175210689 172179671#0"/>
    </vehicle>
    <vehicle id="61" depart="61.00">
        <route edges="26428252#6 26428252#7 26428252#9 1064896775#5 1064896772 159791634#0 159791634#1 159791634#2 159791634#3 159791634#4 159791634#5 159791634#6 159791634#7 159791634#8 251327824#0 251327824#1 251327824#1-AddedOffRampEdge 251327824#2 251327824#3 251327824#4 22759944 159794827#0 159794827#1 159794827#2 159794827#3 227135624 121399473 121399479#0-AddedOnRampEdge 121399479#0 121399479#1 1055899088 1055899086#0 1055899086#0-AddedOffRampEdge 1055899086#1 42412030 1055899085#0 1055899085#1 121399328 171981477-AddedOnRampEdge"/>
    </vehicle>
    <vehicle id="62" depart="62.00">
        <route edges="-1059706295 -227135616#1 -227135616#0 227135623#0 227135623#1 227135623#1-AddedOffRampEdge 227135621#0 227135621#1 227135621#2 159794827#1 159794827#2 159794827#3 227135624 121399473"/>
    </vehicle>
    <vehicle id="63" depart="63.00">
        <route edges="-159782826#4 -159782826#3 42356971#2 42356971#4 42356971#5 1064896775#0 1064896775#1 1064896775#2 1064896775#3 1064896775#4 1064896775#5 1064896772 159791634#0 159791634#1 159791634#2 159791634#3 159791634#4 159791634#5 159791634#6 159791634#7 159791634#8 251327824#0 251327824#1 251327824#1-AddedOffRampEdge 251327824#2 251327824#3 251327824#4 22759944 159783239#0 159783239#1 159783239#2 159783239#3-AddedOnRampEdge 159783239#3 159783239#4 1073361866#0 1073361866#1 251329005 227135616#0 227135616#1 1059706296 251329008#0 -42412528#2 -42412528#1 627964458#0 631913012#0"/>
    </vehicle>
    <vehicle id="64" depart="64.00">
        <route edges="42657835 121399235#0 121399235#1 121399235#2 42659111 1056891569-AddedOnRampEdge 1056891569 42489346#0 42489346#1 42660451 121399219#0 121399219#1 121399219#2 121399219#4 121399219#5 836784981 159782796#0 159782796#1 159782792#0 159782792#1 836784983#0 836784983#1 836784983#3 836784983#4 836784983#5 889124605 889124604#2 889124604#3 237581600#7 889124609#4 251325072#4 251325072#5 1064896775#0 1064896775#1 1064896775#2 1064896775#3 1064896775#4 1064896775#5 1064896772 159791634#0 159791634#1 159791634#2 159791634#3 159791634#4 159791634#5 159791634#6 159791634#7 159791634#8 251327824#0 251327824#1 251327824#1-AddedOffRampEdge 251327824#2 251327824#3 251327824#4 22759944 159783239#0 159783239#1 159783239#2 159783239#3-AddedOnRampEdge 159783239#3 159783239#4 1073361866#0 1073361861#1 1073361861#2 1073361862 1066708144 42412632#0"/>
    </vehicle>