<?xml version="1.0" encoding="UTF-8"?>

<!-- generated on 03/02/23 18:21:24 by Eclipse SUMO duarouter Version 1.8.0
<configuration xmlns:xsi="http://www.w3.org/2001/XMLSchema-instance" xsi:noNamespaceSchemaLocation="http://sumo.dlr.de/xsd/duarouterConfiguration.xsd">

    <input>
        <net-file value="test.net.xml"/>
        <route-files value="trips.trips.xml"/>
    </input>

    <output>
        <output-file value="test.rou.xml"/>
        <alternatives-output value="test.rou.alt.xml"/>
    </output>

    <time>
        <begin value="0"/>
        <end value="20"/>
    </time>

    <report>
        <no-warnings value="true"/>
        <ignore-errors value="true"/>
        <no-step-log value="true"/>
    </report>

</configuration>
-->

<routes xmlns:xsi="http://www.w3.org/2001/XMLSchema-instance" xsi:noNamespaceSchemaLocation="http://sumo.dlr.de/xsd/routes_file.xsd">
    <vehicle id="1" depart="1.00">
        <route edges="gneE1 gneE2 gneE3"/>
    </vehicle>
    <vehicle id="2" depart="2.00">
        <route edges="-gneE1 -gneE0 -gneE3"/>
    </vehicle>
    <vehicle id="3" depart="3.00">
        <route edges="-gneE0"/>
    </vehicle>
    <vehicle id="6" depart="6.00">
        <route edges="gneE3 gneE0 gneE1"/>
    </vehicle>
    <vehicle id="7" depart="7.00">
        <route edges="-gneE0 -gneE3"/>
    </vehicle>
    <vehicle id="10" depart="10.00">
        <route edges="gneE1 gneE2 gneE3 gneE0"/>
    </vehicle>
    <vehicle id="13" depart="13.00">
        <route edges="gneE2"/>
    </vehicle>
    <vehicle id="14" depart="14.00">
        <route edges="-gneE2 -gneE1 -gneE0 -gneE3"/>
    </vehicle>
    <vehicle id="15" depart="15.00">
        <route edges="gneE1"/>
    </vehicle>
    <vehicle id="16" depart="16.00">
        <route edges="gneE3"/>
    </vehicle>
    <vehicle id="17" depart="17.00">
        <route edges="-gneE1 -gneE0 -gneE3 -gneE2"/>
    </vehicle>
    <vehicle id="19" depart="19.00">
        <route edges="gneE0 gneE1 gneE2"/>
    </vehicle>
</routes>
